# This file was generated by ISODISTORT, version 6.12.1
# Harold T. Stokes, Branton J. Campbell, David Tanner, Dorian M. Hatch
# Brigham Young University, Provo, Utah, USA
#
# Space Group: 221 Pm-3m      Oh-1
# Default space-group preferences: monoclinic axes a(b)c, monoclinic cell choice 1, orthorhombic axes abc, origin choice 2, hexagonal axes, SSG standard setting
# Lattice parameters: a= 3.92037, b= 3.92037, c= 3.92037, alpha= 90.00000, beta= 90.00000, gamma= 90.00000
# Sr1 1a (0,0,0)
# Ti1 1b (1/2,1/2,1/2)
# O1 3c (0,1/2,1/2)
# Include strain, displacive ALL distortions
# Subgroup:  26 P2_1am, basis={(16,16,0),(-1,1,0),(0,0,1)}, origin=(-5.00188,-5.00188,0), s=32, i=384
# Space-group preferences for subgroup: orthorhombic axes -cba
# Order parameter values:
#  Pm-3m[0,0,0]GM1+(a) 221 Pm-3m s=1 i=1
#     strain(a):  0.00945
#  Pm-3m[0,0,0]GM3+(a,0) 123 P4/mmm s=1 i=3
#     strain(a): -0.00788
#  Pm-3m[0,0,0]GM5+(a,0,0) 65 Cmmm s=1 i=6
#     strain(a):  0.00000
#  Pm-3m[0,0,0]GM4-(a,a,0) 38 Amm2 s=1 i=12
#     [Sr1:a:dsp]T1u(a):  0.00000
#     [Ti1:b:dsp]T1u(a):  0.00000
#     [O1:c:dsp]A2u(a):  0.00000
#     [O1:c:dsp]Eu(a):  0.00000
#  Pm-3m[0,0,0]GM5-(0,a,-a) 38 Amm2 s=1 i=12
#     [O1:c:dsp]Eu(a):  0.00000
#  Pm-3m[1/32,1/32,0]SM2(a,b;0,0;0,0;0,0;0,0;0,0) 26 P2_1am s=32 i=384
#     [Sr1:a:dsp]T1u(a): -1.85273
#     [Sr1:a:dsp]T1u(b): -2.60641
#     [Ti1:b:dsp]T1u(a): -1.41297
#     [Ti1:b:dsp]T1u(b): -2.72024
#     [O1:c:dsp]A2u(a): -0.67403
#     [O1:c:dsp]A2u(b): -2.96672
#     [O1:c:dsp]Eu_1(a):  0.50691
#     [O1:c:dsp]Eu_1(b):  2.99716
#     [O1:c:dsp]Eu_2(a): -0.55427
#     [O1:c:dsp]Eu_2(b): -2.99722
#  Pm-3m[1/16,1/16,0]SM1(a,b;0,0;0,0;0,0;0,0;0,0) 25 Pmm2 s=16 i=192
#     [Sr1:a:dsp]T1u(a):  0.00000
#     [Sr1:a:dsp]T1u(b):  0.00000
#     [Ti1:b:dsp]T1u(a):  0.00000
#     [Ti1:b:dsp]T1u(b):  0.00000
#     [O1:c:dsp]A2u(a):  0.00000
#     [O1:c:dsp]A2u(b):  0.00000
#     [O1:c:dsp]Eu_1(a):  0.00000
#     [O1:c:dsp]Eu_1(b):  0.00000
#     [O1:c:dsp]Eu_2(a):  0.00000
#     [O1:c:dsp]Eu_2(b):  0.00000
#  Pm-3m[3/32,3/32,0]SM2(a,b;0,0;0,0;0,0;0,0;0,0) 26 P2_1am s=32 i=384
#     [Sr1:a:dsp]T1u(a):  0.00000
#     [Sr1:a:dsp]T1u(b):  0.00000
#     [Ti1:b:dsp]T1u(a):  0.00000
#     [Ti1:b:dsp]T1u(b):  0.00000
#     [O1:c:dsp]A2u(a):  0.00000
#     [O1:c:dsp]A2u(b):  0.00000
#     [O1:c:dsp]Eu_1(a):  0.00000
#     [O1:c:dsp]Eu_1(b):  0.00000
#     [O1:c:dsp]Eu_2(a):  0.00000
#     [O1:c:dsp]Eu_2(b):  0.00000
#  Pm-3m[1/8,1/8,0]SM1(a,b;0,0;0,0;0,0;0,0;0,0) 25 Pmm2 s=8 i=96
#     [Sr1:a:dsp]T1u(a):  0.00000
#     [Sr1:a:dsp]T1u(b):  0.00000
#     [Ti1:b:dsp]T1u(a):  0.00000
#     [Ti1:b:dsp]T1u(b):  0.00000
#     [O1:c:dsp]A2u(a):  0.00000
#     [O1:c:dsp]A2u(b):  0.00000
#     [O1:c:dsp]Eu_1(a):  0.00000
#     [O1:c:dsp]Eu_1(b):  0.00000
#     [O1:c:dsp]Eu_2(a):  0.00000
#     [O1:c:dsp]Eu_2(b):  0.00000
#  Pm-3m[5/32,5/32,0]SM2(a,b;0,0;0,0;0,0;0,0;0,0) 26 P2_1am s=32 i=384
#     [Sr1:a:dsp]T1u(a):  0.00000
#     [Sr1:a:dsp]T1u(b):  0.00000
#     [Ti1:b:dsp]T1u(a):  0.00000
#     [Ti1:b:dsp]T1u(b):  0.00000
#     [O1:c:dsp]A2u(a):  0.00000
#     [O1:c:dsp]A2u(b):  0.00000
#     [O1:c:dsp]Eu_1(a):  0.00000
#     [O1:c:dsp]Eu_1(b):  0.00000
#     [O1:c:dsp]Eu_2(a):  0.00000
#     [O1:c:dsp]Eu_2(b):  0.00000
#  Pm-3m[3/16,3/16,0]SM1(a,b;0,0;0,0;0,0;0,0;0,0) 25 Pmm2 s=16 i=192
#     [Sr1:a:dsp]T1u(a):  0.00000
#     [Sr1:a:dsp]T1u(b):  0.00000
#     [Ti1:b:dsp]T1u(a):  0.00000
#     [Ti1:b:dsp]T1u(b):  0.00000
#     [O1:c:dsp]A2u(a):  0.00000
#     [O1:c:dsp]A2u(b):  0.00000
#     [O1:c:dsp]Eu_1(a):  0.00000
#     [O1:c:dsp]Eu_1(b):  0.00000
#     [O1:c:dsp]Eu_2(a):  0.00000
#     [O1:c:dsp]Eu_2(b):  0.00000
#  Pm-3m[7/32,7/32,0]SM2(a,b;0,0;0,0;0,0;0,0;0,0) 26 P2_1am s=32 i=384
#     [Sr1:a:dsp]T1u(a):  0.00000
#     [Sr1:a:dsp]T1u(b):  0.00000
#     [Ti1:b:dsp]T1u(a):  0.00000
#     [Ti1:b:dsp]T1u(b):  0.00000
#     [O1:c:dsp]A2u(a):  0.00000
#     [O1:c:dsp]A2u(b):  0.00000
#     [O1:c:dsp]Eu_1(a):  0.00000
#     [O1:c:dsp]Eu_1(b):  0.00000
#     [O1:c:dsp]Eu_2(a):  0.00000
#     [O1:c:dsp]Eu_2(b):  0.00000
#  Pm-3m[1/4,1/4,0]SM1(a,b;0,0;0,0;0,0;0,0;0,0) 25 Pmm2 s=4 i=48
#     [Sr1:a:dsp]T1u(a):  0.00000
#     [Sr1:a:dsp]T1u(b):  0.00000
#     [Ti1:b:dsp]T1u(a):  0.00000
#     [Ti1:b:dsp]T1u(b):  0.00000
#     [O1:c:dsp]A2u(a):  0.00000
#     [O1:c:dsp]A2u(b):  0.00000
#     [O1:c:dsp]Eu_1(a):  0.00000
#     [O1:c:dsp]Eu_1(b):  0.00000
#     [O1:c:dsp]Eu_2(a):  0.00000
#     [O1:c:dsp]Eu_2(b):  0.00000
#  Pm-3m[9/32,9/32,0]SM2(a,b;0,0;0,0;0,0;0,0;0,0) 26 P2_1am s=32 i=384
#     [Sr1:a:dsp]T1u(a):  0.00000
#     [Sr1:a:dsp]T1u(b):  0.00000
#     [Ti1:b:dsp]T1u(a):  0.00000
#     [Ti1:b:dsp]T1u(b):  0.00000
#     [O1:c:dsp]A2u(a):  0.00000
#     [O1:c:dsp]A2u(b):  0.00000
#     [O1:c:dsp]Eu_1(a):  0.00000
#     [O1:c:dsp]Eu_1(b):  0.00000
#     [O1:c:dsp]Eu_2(a):  0.00000
#     [O1:c:dsp]Eu_2(b):  0.00000
#  Pm-3m[5/16,5/16,0]SM1(a,b;0,0;0,0;0,0;0,0;0,0) 25 Pmm2 s=16 i=192
#     [Sr1:a:dsp]T1u(a):  0.00000
#     [Sr1:a:dsp]T1u(b):  0.00000
#     [Ti1:b:dsp]T1u(a):  0.00000
#     [Ti1:b:dsp]T1u(b):  0.00000
#     [O1:c:dsp]A2u(a):  0.00000
#     [O1:c:dsp]A2u(b):  0.00000
#     [O1:c:dsp]Eu_1(a):  0.00000
#     [O1:c:dsp]Eu_1(b):  0.00000
#     [O1:c:dsp]Eu_2(a):  0.00000
#     [O1:c:dsp]Eu_2(b):  0.00000
#  Pm-3m[11/32,11/32,0]SM2(a,b;0,0;0,0;0,0;0,0;0,0) 26 P2_1am s=32 i=384
#     [Sr1:a:dsp]T1u(a):  0.00000
#     [Sr1:a:dsp]T1u(b):  0.00000
#     [Ti1:b:dsp]T1u(a):  0.00000
#     [Ti1:b:dsp]T1u(b):  0.00000
#     [O1:c:dsp]A2u(a):  0.00000
#     [O1:c:dsp]A2u(b):  0.00000
#     [O1:c:dsp]Eu_1(a):  0.00000
#     [O1:c:dsp]Eu_1(b):  0.00000
#     [O1:c:dsp]Eu_2(a):  0.00000
#     [O1:c:dsp]Eu_2(b):  0.00000
#  Pm-3m[3/8,3/8,0]SM1(a,b;0,0;0,0;0,0;0,0;0,0) 25 Pmm2 s=8 i=96
#     [Sr1:a:dsp]T1u(a):  0.00000
#     [Sr1:a:dsp]T1u(b):  0.00000
#     [Ti1:b:dsp]T1u(a):  0.00000
#     [Ti1:b:dsp]T1u(b):  0.00000
#     [O1:c:dsp]A2u(a):  0.00000
#     [O1:c:dsp]A2u(b):  0.00000
#     [O1:c:dsp]Eu_1(a):  0.00000
#     [O1:c:dsp]Eu_1(b):  0.00000
#     [O1:c:dsp]Eu_2(a):  0.00000
#     [O1:c:dsp]Eu_2(b):  0.00000
#  Pm-3m[13/32,13/32,0]SM2(a,b;0,0;0,0;0,0;0,0;0,0) 26 P2_1am s=32 i=384
#     [Sr1:a:dsp]T1u(a):  0.00000
#     [Sr1:a:dsp]T1u(b):  0.00000
#     [Ti1:b:dsp]T1u(a):  0.00000
#     [Ti1:b:dsp]T1u(b):  0.00000
#     [O1:c:dsp]A2u(a):  0.00000
#     [O1:c:dsp]A2u(b):  0.00000
#     [O1:c:dsp]Eu_1(a):  0.00000
#     [O1:c:dsp]Eu_1(b):  0.00000
#     [O1:c:dsp]Eu_2(a):  0.00000
#     [O1:c:dsp]Eu_2(b):  0.00000
#  Pm-3m[7/16,7/16,0]SM1(a,b;0,0;0,0;0,0;0,0;0,0) 25 Pmm2 s=16 i=192
#     [Sr1:a:dsp]T1u(a):  0.00000
#     [Sr1:a:dsp]T1u(b):  0.00000
#     [Ti1:b:dsp]T1u(a):  0.00000
#     [Ti1:b:dsp]T1u(b):  0.00000
#     [O1:c:dsp]A2u(a):  0.00000
#     [O1:c:dsp]A2u(b):  0.00000
#     [O1:c:dsp]Eu_1(a):  0.00000
#     [O1:c:dsp]Eu_1(b):  0.00000
#     [O1:c:dsp]Eu_2(a):  0.00000
#     [O1:c:dsp]Eu_2(b):  0.00000
#  Pm-3m[15/32,15/32,0]SM2(a,b;0,0;0,0;0,0;0,0;0,0) 26 P2_1am s=32 i=384
#     [Sr1:a:dsp]T1u(a):  0.00000
#     [Sr1:a:dsp]T1u(b):  0.00000
#     [Ti1:b:dsp]T1u(a):  0.00000
#     [Ti1:b:dsp]T1u(b):  0.00000
#     [O1:c:dsp]A2u(a):  0.00000
#     [O1:c:dsp]A2u(b):  0.00000
#     [O1:c:dsp]Eu_1(a):  0.00000
#     [O1:c:dsp]Eu_1(b):  0.00000
#     [O1:c:dsp]Eu_2(a):  0.00000
#     [O1:c:dsp]Eu_2(b):  0.00000
#  Pm-3m[1/2,1/2,0]M1+(a;0;0) 123 P4/mmm s=2 i=6
#     [O1:c:dsp]Eu(a):  0.00000
#  Pm-3m[1/2,1/2,0]M4+(a;0;0) 123 P4/mmm s=2 i=6
#     [O1:c:dsp]A2u(a):  0.00000
#  Pm-3m[1/2,1/2,0]M5-(a,a;0,0;0,0) 51 Pmma s=2 i=12
#     [Sr1:a:dsp]T1u(a):  0.00000
#     [Ti1:b:dsp]T1u(a):  0.00000
#     [O1:c:dsp]Eu(a):  0.00000

data_isodistort-output

_cell_length_a     89.47721
_cell_length_b     5.59233
_cell_length_c     3.91654
_cell_angle_alpha  90.00000
_cell_angle_beta   90.00000
_cell_angle_gamma  90.00000
_cell_volume       1959.77829

_symmetry_space_group_name_H-M "P 21 a m"
_symmetry_Int_Tables_number 26
_space_group.reference_setting '026:P 2c -2'
_space_group.transform_Pp_abc c,b,-a;0,0,0

loop_
_space_group_symop_id
_space_group_symop_operation_xyz
1 x,y,z
2 x+1/2,-y,-z
3 x,y,-z
4 x+1/2,-y,z

loop_
_atom_type_symbol
Sr    
Ti    
O     

loop_
_atom_site_label
_atom_site_type_symbol
_atom_site_symmetry_multiplicity
_atom_site_Wyckoff_symbol
_atom_site_fract_x
_atom_site_fract_y
_atom_site_fract_z
_atom_site_occupancy
_atom_site_fract_symmform
Sr1  Sr   2 a -0.03113  0.36524  0.00000  1.00000 Dx,Dy,0 
Sr2  Sr   2 a  0.03137  0.39513  0.00000  1.00000 Dx,Dy,0 
Sr3  Sr   2 a  0.09387  0.44099  0.00000  1.00000 Dx,Dy,0 
Sr4  Sr   2 a  0.15637  0.49583  0.00000  1.00000 Dx,Dy,0 
Sr5  Sr   2 a  0.21887  0.55131  0.00000  1.00000 Dx,Dy,0 
Sr6  Sr   2 a  0.28137  0.59897  0.00000  1.00000 Dx,Dy,0 
Sr7  Sr   2 a  0.34387  0.63157  0.00000  1.00000 Dx,Dy,0 
Sr8  Sr   2 a  0.40637  0.64413  0.00000  1.00000 Dx,Dy,0 
Sr9  Sr   2 a  0.00012  0.87784  0.00000  1.00000 Dx,Dy,0 
Sr10 Sr   2 a  0.06262 -0.08354  0.00000  1.00000 Dx,Dy,0 
Sr11 Sr   2 a  0.12512 -0.03221  0.00000  1.00000 Dx,Dy,0 
Sr12 Sr   2 a  0.18762  0.02403  0.00000  1.00000 Dx,Dy,0 
Sr13 Sr   2 a  0.25012  0.07661  0.00000  1.00000 Dx,Dy,0 
Sr14 Sr   2 a  0.31262  0.11753  0.00000  1.00000 Dx,Dy,0 
Sr15 Sr   2 a  0.37512  0.14055  0.00000  1.00000 Dx,Dy,0 
Sr16 Sr   2 a  0.43762  0.14218  0.00000  1.00000 Dx,Dy,0 
Ti1  Ti   2 b  0.00012  0.39420  0.50000  1.00000 Dx,Dy,0 
Ti2  Ti   2 b  0.06262  0.43629  0.50000  1.00000 Dx,Dy,0 
Ti3  Ti   2 b  0.12512  0.48808  0.50000  1.00000 Dx,Dy,0 
Ti4  Ti   2 b  0.18762  0.54168  0.50000  1.00000 Dx,Dy,0 
Ti5  Ti   2 b  0.25012  0.58894  0.50000  1.00000 Dx,Dy,0 
Ti6  Ti   2 b  0.31262  0.62266  0.50000  1.00000 Dx,Dy,0 
Ti7  Ti   2 b  0.37512  0.63771  0.50000  1.00000 Dx,Dy,0 
Ti8  Ti   2 b  0.43762  0.63179  0.50000  1.00000 Dx,Dy,0 
Ti9  Ti   2 b  0.03137 -0.08642  0.50000  1.00000 Dx,Dy,0 
Ti10 Ti   2 b  0.09387 -0.03856  0.50000  1.00000 Dx,Dy,0 
Ti11 Ti   2 b  0.15637  0.01517  0.50000  1.00000 Dx,Dy,0 
Ti12 Ti   2 b  0.21887  0.06659  0.50000  1.00000 Dx,Dy,0 
Ti13 Ti   2 b  0.28137  0.10787  0.50000  1.00000 Dx,Dy,0 
Ti14 Ti   2 b  0.34387  0.13273  0.50000  1.00000 Dx,Dy,0 
Ti15 Ti   2 b  0.40637  0.13739  0.50000  1.00000 Dx,Dy,0 
Ti16 Ti   2 b  0.46887  0.12112  0.50000  1.00000 Dx,Dy,0 
O1   O    2 b -0.01570  0.16313  0.50000  1.00000 Dx,Dy,0 
O2   O    2 b  0.04676  0.21032  0.50000  1.00000 Dx,Dy,0 
O3   O    2 b  0.10925  0.26355  0.50000  1.00000 Dx,Dy,0 
O4   O    2 b  0.17178  0.31472  0.50000  1.00000 Dx,Dy,0 
O5   O    2 b  0.23434  0.35603  0.50000  1.00000 Dx,Dy,0 
O6   O    2 b  0.29693  0.38120  0.50000  1.00000 Dx,Dy,0 
O7   O    2 b  0.35952  0.38640  0.50000  1.00000 Dx,Dy,0 
O8   O    2 b  0.42211  0.37083  0.50000  1.00000 Dx,Dy,0 
O9   O    2 b  0.48468  0.33687  0.50000  1.00000 Dx,Dy,0 
O10  O    2 b  0.54722  0.28968  0.50000  1.00000 Dx,Dy,0 
O11  O    2 b  0.60973  0.23645  0.50000  1.00000 Dx,Dy,0 
O12  O    2 b  0.67220  0.18528  0.50000  1.00000 Dx,Dy,0 
O13  O    2 b  0.73464  0.14397  0.50000  1.00000 Dx,Dy,0 
O14  O    2 b  0.79706  0.11880  0.50000  1.00000 Dx,Dy,0 
O15  O    2 b  0.85946  0.11360  0.50000  1.00000 Dx,Dy,0 
O16  O    2 b -0.07812  0.12917  0.50000  1.00000 Dx,Dy,0 
O17  O    2 b  0.01553  0.68549  0.50000  1.00000 Dx,Dy,0 
O18  O    2 b  0.07800  0.73668  0.50000  1.00000 Dx,Dy,0 
O19  O    2 b  0.14051  0.78990  0.50000  1.00000 Dx,Dy,0 
O20  O    2 b  0.20306  0.83705  0.50000  1.00000 Dx,Dy,0 
O21  O    2 b  0.26563  0.87094  0.50000  1.00000 Dx,Dy,0 
O22  O    2 b  0.32822  0.88642  0.50000  1.00000 Dx,Dy,0 
O23  O    2 b  0.39082  0.88114  0.50000  1.00000 Dx,Dy,0 
O24  O    2 b  0.45340  0.85588  0.50000  1.00000 Dx,Dy,0 
O25  O    2 b  0.51596  0.81451  0.50000  1.00000 Dx,Dy,0 
O26  O    2 b  0.57848  0.76332  0.50000  1.00000 Dx,Dy,0 
O27  O    2 b  0.64097  0.71010  0.50000  1.00000 Dx,Dy,0 
O28  O    2 b  0.70342  0.66295  0.50000  1.00000 Dx,Dy,0 
O29  O    2 b  0.76585  0.62906  0.50000  1.00000 Dx,Dy,0 
O30  O    2 b  0.82826  0.61358  0.50000  1.00000 Dx,Dy,0 
O31  O    2 b  0.89067  0.61886  0.50000  1.00000 Dx,Dy,0 
O32  O    2 b -0.04691  0.64412  0.50000  1.00000 Dx,Dy,0 
O33  O    2 a  0.00012  0.42519  0.00000  1.00000 Dx,Dy,0 
O34  O    2 a  0.06262  0.47501  0.00000  1.00000 Dx,Dy,0 
O35  O    2 a  0.12512  0.52863  0.00000  1.00000 Dx,Dy,0 
O36  O    2 a  0.18762  0.57789  0.00000  1.00000 Dx,Dy,0 
O37  O    2 a  0.25012  0.61530  0.00000  1.00000 Dx,Dy,0 
O38  O    2 a  0.31262  0.63515  0.00000  1.00000 Dx,Dy,0 
O39  O    2 a  0.37512  0.63443  0.00000  1.00000 Dx,Dy,0 
O40  O    2 a  0.43762  0.61324  0.00000  1.00000 Dx,Dy,0 
O41  O    2 a  0.03137 -0.05088  0.00000  1.00000 Dx,Dy,0 
O42  O    2 a  0.09387  0.00185  0.00000  1.00000 Dx,Dy,0 
O43  O    2 a  0.15637  0.05430  0.00000  1.00000 Dx,Dy,0 
O44  O    2 a  0.21887  0.09849  0.00000  1.00000 Dx,Dy,0 
O45  O    2 a  0.28137  0.12768  0.00000  1.00000 Dx,Dy,0 
O46  O    2 a  0.34387  0.13743  0.00000  1.00000 Dx,Dy,0 
O47  O    2 a  0.40637  0.12626  0.00000  1.00000 Dx,Dy,0 
O48  O    2 a  0.46887  0.09587  0.00000  1.00000 Dx,Dy,0 

_iso_displacivemode_number  160

loop_
_iso_displacivemode_ID
_iso_displacivemode_label
_iso_displacivemode_value
   1 Pm-3m[0,0,0]GM4-(a,a,0)[Sr1:a:dsp]T1u(a)  0.00000
   2 Pm-3m[1/32,1/32,0]SM2(a,b;0,0;0,0;0,0;0,0;0,0)[Sr1:a:dsp]T1u(a) -1.85273
   3 Pm-3m[1/32,1/32,0]SM2(a,b;0,0;0,0;0,0;0,0;0,0)[Sr1:a:dsp]T1u(b) -2.60641
   4 Pm-3m[1/16,1/16,0]SM1(a,b;0,0;0,0;0,0;0,0;0,0)[Sr1:a:dsp]T1u(a)  0.00000
   5 Pm-3m[1/16,1/16,0]SM1(a,b;0,0;0,0;0,0;0,0;0,0)[Sr1:a:dsp]T1u(b)  0.00000
   6 Pm-3m[3/32,3/32,0]SM2(a,b;0,0;0,0;0,0;0,0;0,0)[Sr1:a:dsp]T1u(a)  0.00000
   7 Pm-3m[3/32,3/32,0]SM2(a,b;0,0;0,0;0,0;0,0;0,0)[Sr1:a:dsp]T1u(b)  0.00000
   8 Pm-3m[1/8,1/8,0]SM1(a,b;0,0;0,0;0,0;0,0;0,0)[Sr1:a:dsp]T1u(a)  0.00000
   9 Pm-3m[1/8,1/8,0]SM1(a,b;0,0;0,0;0,0;0,0;0,0)[Sr1:a:dsp]T1u(b)  0.00000
  10 Pm-3m[5/32,5/32,0]SM2(a,b;0,0;0,0;0,0;0,0;0,0)[Sr1:a:dsp]T1u(a)  0.00000
  11 Pm-3m[5/32,5/32,0]SM2(a,b;0,0;0,0;0,0;0,0;0,0)[Sr1:a:dsp]T1u(b)  0.00000
  12 Pm-3m[3/16,3/16,0]SM1(a,b;0,0;0,0;0,0;0,0;0,0)[Sr1:a:dsp]T1u(a)  0.00000
  13 Pm-3m[3/16,3/16,0]SM1(a,b;0,0;0,0;0,0;0,0;0,0)[Sr1:a:dsp]T1u(b)  0.00000
  14 Pm-3m[7/32,7/32,0]SM2(a,b;0,0;0,0;0,0;0,0;0,0)[Sr1:a:dsp]T1u(a)  0.00000
  15 Pm-3m[7/32,7/32,0]SM2(a,b;0,0;0,0;0,0;0,0;0,0)[Sr1:a:dsp]T1u(b)  0.00000
  16 Pm-3m[1/4,1/4,0]SM1(a,b;0,0;0,0;0,0;0,0;0,0)[Sr1:a:dsp]T1u(a)  0.00000
  17 Pm-3m[1/4,1/4,0]SM1(a,b;0,0;0,0;0,0;0,0;0,0)[Sr1:a:dsp]T1u(b)  0.00000
  18 Pm-3m[9/32,9/32,0]SM2(a,b;0,0;0,0;0,0;0,0;0,0)[Sr1:a:dsp]T1u(a)  0.00000
  19 Pm-3m[9/32,9/32,0]SM2(a,b;0,0;0,0;0,0;0,0;0,0)[Sr1:a:dsp]T1u(b)  0.00000
  20 Pm-3m[5/16,5/16,0]SM1(a,b;0,0;0,0;0,0;0,0;0,0)[Sr1:a:dsp]T1u(a)  0.00000
  21 Pm-3m[5/16,5/16,0]SM1(a,b;0,0;0,0;0,0;0,0;0,0)[Sr1:a:dsp]T1u(b)  0.00000
  22 Pm-3m[11/32,11/32,0]SM2(a,b;0,0;0,0;0,0;0,0;0,0)[Sr1:a:dsp]T1u(a)  0.00000
  23 Pm-3m[11/32,11/32,0]SM2(a,b;0,0;0,0;0,0;0,0;0,0)[Sr1:a:dsp]T1u(b)  0.00000
  24 Pm-3m[3/8,3/8,0]SM1(a,b;0,0;0,0;0,0;0,0;0,0)[Sr1:a:dsp]T1u(a)  0.00000
  25 Pm-3m[3/8,3/8,0]SM1(a,b;0,0;0,0;0,0;0,0;0,0)[Sr1:a:dsp]T1u(b)  0.00000
  26 Pm-3m[13/32,13/32,0]SM2(a,b;0,0;0,0;0,0;0,0;0,0)[Sr1:a:dsp]T1u(a)  0.00000
  27 Pm-3m[13/32,13/32,0]SM2(a,b;0,0;0,0;0,0;0,0;0,0)[Sr1:a:dsp]T1u(b)  0.00000
  28 Pm-3m[7/16,7/16,0]SM1(a,b;0,0;0,0;0,0;0,0;0,0)[Sr1:a:dsp]T1u(a)  0.00000
  29 Pm-3m[7/16,7/16,0]SM1(a,b;0,0;0,0;0,0;0,0;0,0)[Sr1:a:dsp]T1u(b)  0.00000
  30 Pm-3m[15/32,15/32,0]SM2(a,b;0,0;0,0;0,0;0,0;0,0)[Sr1:a:dsp]T1u(a)  0.00000
  31 Pm-3m[15/32,15/32,0]SM2(a,b;0,0;0,0;0,0;0,0;0,0)[Sr1:a:dsp]T1u(b)  0.00000
  32 Pm-3m[1/2,1/2,0]M5-(a,a;0,0;0,0)[Sr1:a:dsp]T1u(a)  0.00000
  33 Pm-3m[0,0,0]GM4-(a,a,0)[Ti1:b:dsp]T1u(a)  0.00000
  34 Pm-3m[1/32,1/32,0]SM2(a,b;0,0;0,0;0,0;0,0;0,0)[Ti1:b:dsp]T1u(a) -1.41297
  35 Pm-3m[1/32,1/32,0]SM2(a,b;0,0;0,0;0,0;0,0;0,0)[Ti1:b:dsp]T1u(b) -2.72024
  36 Pm-3m[1/16,1/16,0]SM1(a,b;0,0;0,0;0,0;0,0;0,0)[Ti1:b:dsp]T1u(a)  0.00000
  37 Pm-3m[1/16,1/16,0]SM1(a,b;0,0;0,0;0,0;0,0;0,0)[Ti1:b:dsp]T1u(b)  0.00000
  38 Pm-3m[3/32,3/32,0]SM2(a,b;0,0;0,0;0,0;0,0;0,0)[Ti1:b:dsp]T1u(a)  0.00000
  39 Pm-3m[3/32,3/32,0]SM2(a,b;0,0;0,0;0,0;0,0;0,0)[Ti1:b:dsp]T1u(b)  0.00000
  40 Pm-3m[1/8,1/8,0]SM1(a,b;0,0;0,0;0,0;0,0;0,0)[Ti1:b:dsp]T1u(a)  0.00000
  41 Pm-3m[1/8,1/8,0]SM1(a,b;0,0;0,0;0,0;0,0;0,0)[Ti1:b:dsp]T1u(b)  0.00000
  42 Pm-3m[5/32,5/32,0]SM2(a,b;0,0;0,0;0,0;0,0;0,0)[Ti1:b:dsp]T1u(a)  0.00000
  43 Pm-3m[5/32,5/32,0]SM2(a,b;0,0;0,0;0,0;0,0;0,0)[Ti1:b:dsp]T1u(b)  0.00000
  44 Pm-3m[3/16,3/16,0]SM1(a,b;0,0;0,0;0,0;0,0;0,0)[Ti1:b:dsp]T1u(a)  0.00000
  45 Pm-3m[3/16,3/16,0]SM1(a,b;0,0;0,0;0,0;0,0;0,0)[Ti1:b:dsp]T1u(b)  0.00000
  46 Pm-3m[7/32,7/32,0]SM2(a,b;0,0;0,0;0,0;0,0;0,0)[Ti1:b:dsp]T1u(a)  0.00000
  47 Pm-3m[7/32,7/32,0]SM2(a,b;0,0;0,0;0,0;0,0;0,0)[Ti1:b:dsp]T1u(b)  0.00000
  48 Pm-3m[1/4,1/4,0]SM1(a,b;0,0;0,0;0,0;0,0;0,0)[Ti1:b:dsp]T1u(a)  0.00000
  49 Pm-3m[1/4,1/4,0]SM1(a,b;0,0;0,0;0,0;0,0;0,0)[Ti1:b:dsp]T1u(b)  0.00000
  50 Pm-3m[9/32,9/32,0]SM2(a,b;0,0;0,0;0,0;0,0;0,0)[Ti1:b:dsp]T1u(a)  0.00000
  51 Pm-3m[9/32,9/32,0]SM2(a,b;0,0;0,0;0,0;0,0;0,0)[Ti1:b:dsp]T1u(b)  0.00000
  52 Pm-3m[5/16,5/16,0]SM1(a,b;0,0;0,0;0,0;0,0;0,0)[Ti1:b:dsp]T1u(a)  0.00000
  53 Pm-3m[5/16,5/16,0]SM1(a,b;0,0;0,0;0,0;0,0;0,0)[Ti1:b:dsp]T1u(b)  0.00000
  54 Pm-3m[11/32,11/32,0]SM2(a,b;0,0;0,0;0,0;0,0;0,0)[Ti1:b:dsp]T1u(a)  0.00000
  55 Pm-3m[11/32,11/32,0]SM2(a,b;0,0;0,0;0,0;0,0;0,0)[Ti1:b:dsp]T1u(b)  0.00000
  56 Pm-3m[3/8,3/8,0]SM1(a,b;0,0;0,0;0,0;0,0;0,0)[Ti1:b:dsp]T1u(a)  0.00000
  57 Pm-3m[3/8,3/8,0]SM1(a,b;0,0;0,0;0,0;0,0;0,0)[Ti1:b:dsp]T1u(b)  0.00000
  58 Pm-3m[13/32,13/32,0]SM2(a,b;0,0;0,0;0,0;0,0;0,0)[Ti1:b:dsp]T1u(a)  0.00000
  59 Pm-3m[13/32,13/32,0]SM2(a,b;0,0;0,0;0,0;0,0;0,0)[Ti1:b:dsp]T1u(b)  0.00000
  60 Pm-3m[7/16,7/16,0]SM1(a,b;0,0;0,0;0,0;0,0;0,0)[Ti1:b:dsp]T1u(a)  0.00000
  61 Pm-3m[7/16,7/16,0]SM1(a,b;0,0;0,0;0,0;0,0;0,0)[Ti1:b:dsp]T1u(b)  0.00000
  62 Pm-3m[15/32,15/32,0]SM2(a,b;0,0;0,0;0,0;0,0;0,0)[Ti1:b:dsp]T1u(a)  0.00000
  63 Pm-3m[15/32,15/32,0]SM2(a,b;0,0;0,0;0,0;0,0;0,0)[Ti1:b:dsp]T1u(b)  0.00000
  64 Pm-3m[1/2,1/2,0]M5-(a,a;0,0;0,0)[Ti1:b:dsp]T1u(a)  0.00000
  65 Pm-3m[0,0,0]GM4-(a,a,0)[O1:c:dsp]A2u(a)  0.00000
  66 Pm-3m[0,0,0]GM4-(a,a,0)[O1:c:dsp]Eu(a)  0.00000
  67 Pm-3m[0,0,0]GM5-(0,a,-a)[O1:c:dsp]Eu(a)  0.00000
  68 Pm-3m[1/32,1/32,0]SM2(a,b;0,0;0,0;0,0;0,0;0,0)[O1:c:dsp]A2u(a) -0.67403
  69 Pm-3m[1/32,1/32,0]SM2(a,b;0,0;0,0;0,0;0,0;0,0)[O1:c:dsp]A2u(b) -2.96672
  70 Pm-3m[1/32,1/32,0]SM2(a,b;0,0;0,0;0,0;0,0;0,0)[O1:c:dsp]Eu_1(a)  0.50691
  71 Pm-3m[1/32,1/32,0]SM2(a,b;0,0;0,0;0,0;0,0;0,0)[O1:c:dsp]Eu_1(b)  2.99716
  72 Pm-3m[1/32,1/32,0]SM2(a,b;0,0;0,0;0,0;0,0;0,0)[O1:c:dsp]Eu_2(a) -0.55427
  73 Pm-3m[1/32,1/32,0]SM2(a,b;0,0;0,0;0,0;0,0;0,0)[O1:c:dsp]Eu_2(b) -2.99722
  74 Pm-3m[1/16,1/16,0]SM1(a,b;0,0;0,0;0,0;0,0;0,0)[O1:c:dsp]A2u(a)  0.00000
  75 Pm-3m[1/16,1/16,0]SM1(a,b;0,0;0,0;0,0;0,0;0,0)[O1:c:dsp]A2u(b)  0.00000
  76 Pm-3m[1/16,1/16,0]SM1(a,b;0,0;0,0;0,0;0,0;0,0)[O1:c:dsp]Eu_1(a)  0.00000
  77 Pm-3m[1/16,1/16,0]SM1(a,b;0,0;0,0;0,0;0,0;0,0)[O1:c:dsp]Eu_1(b)  0.00000
  78 Pm-3m[1/16,1/16,0]SM1(a,b;0,0;0,0;0,0;0,0;0,0)[O1:c:dsp]Eu_2(a)  0.00000
  79 Pm-3m[1/16,1/16,0]SM1(a,b;0,0;0,0;0,0;0,0;0,0)[O1:c:dsp]Eu_2(b)  0.00000
  80 Pm-3m[3/32,3/32,0]SM2(a,b;0,0;0,0;0,0;0,0;0,0)[O1:c:dsp]A2u(a)  0.00000
  81 Pm-3m[3/32,3/32,0]SM2(a,b;0,0;0,0;0,0;0,0;0,0)[O1:c:dsp]A2u(b)  0.00000
  82 Pm-3m[3/32,3/32,0]SM2(a,b;0,0;0,0;0,0;0,0;0,0)[O1:c:dsp]Eu_1(a)  0.00000
  83 Pm-3m[3/32,3/32,0]SM2(a,b;0,0;0,0;0,0;0,0;0,0)[O1:c:dsp]Eu_1(b)  0.00000
  84 Pm-3m[3/32,3/32,0]SM2(a,b;0,0;0,0;0,0;0,0;0,0)[O1:c:dsp]Eu_2(a)  0.00000
  85 Pm-3m[3/32,3/32,0]SM2(a,b;0,0;0,0;0,0;0,0;0,0)[O1:c:dsp]Eu_2(b)  0.00000
  86 Pm-3m[1/8,1/8,0]SM1(a,b;0,0;0,0;0,0;0,0;0,0)[O1:c:dsp]A2u(a)  0.00000
  87 Pm-3m[1/8,1/8,0]SM1(a,b;0,0;0,0;0,0;0,0;0,0)[O1:c:dsp]A2u(b)  0.00000
  88 Pm-3m[1/8,1/8,0]SM1(a,b;0,0;0,0;0,0;0,0;0,0)[O1:c:dsp]Eu_1(a)  0.00000
  89 Pm-3m[1/8,1/8,0]SM1(a,b;0,0;0,0;0,0;0,0;0,0)[O1:c:dsp]Eu_1(b)  0.00000
  90 Pm-3m[1/8,1/8,0]SM1(a,b;0,0;0,0;0,0;0,0;0,0)[O1:c:dsp]Eu_2(a)  0.00000
  91 Pm-3m[1/8,1/8,0]SM1(a,b;0,0;0,0;0,0;0,0;0,0)[O1:c:dsp]Eu_2(b)  0.00000
  92 Pm-3m[5/32,5/32,0]SM2(a,b;0,0;0,0;0,0;0,0;0,0)[O1:c:dsp]A2u(a)  0.00000
  93 Pm-3m[5/32,5/32,0]SM2(a,b;0,0;0,0;0,0;0,0;0,0)[O1:c:dsp]A2u(b)  0.00000
  94 Pm-3m[5/32,5/32,0]SM2(a,b;0,0;0,0;0,0;0,0;0,0)[O1:c:dsp]Eu_1(a)  0.00000
  95 Pm-3m[5/32,5/32,0]SM2(a,b;0,0;0,0;0,0;0,0;0,0)[O1:c:dsp]Eu_1(b)  0.00000
  96 Pm-3m[5/32,5/32,0]SM2(a,b;0,0;0,0;0,0;0,0;0,0)[O1:c:dsp]Eu_2(a)  0.00000
  97 Pm-3m[5/32,5/32,0]SM2(a,b;0,0;0,0;0,0;0,0;0,0)[O1:c:dsp]Eu_2(b)  0.00000
  98 Pm-3m[3/16,3/16,0]SM1(a,b;0,0;0,0;0,0;0,0;0,0)[O1:c:dsp]A2u(a)  0.00000
  99 Pm-3m[3/16,3/16,0]SM1(a,b;0,0;0,0;0,0;0,0;0,0)[O1:c:dsp]A2u(b)  0.00000
 100 Pm-3m[3/16,3/16,0]SM1(a,b;0,0;0,0;0,0;0,0;0,0)[O1:c:dsp]Eu_1(a)  0.00000
 101 Pm-3m[3/16,3/16,0]SM1(a,b;0,0;0,0;0,0;0,0;0,0)[O1:c:dsp]Eu_1(b)  0.00000
 102 Pm-3m[3/16,3/16,0]SM1(a,b;0,0;0,0;0,0;0,0;0,0)[O1:c:dsp]Eu_2(a)  0.00000
 103 Pm-3m[3/16,3/16,0]SM1(a,b;0,0;0,0;0,0;0,0;0,0)[O1:c:dsp]Eu_2(b)  0.00000
 104 Pm-3m[7/32,7/32,0]SM2(a,b;0,0;0,0;0,0;0,0;0,0)[O1:c:dsp]A2u(a)  0.00000
 105 Pm-3m[7/32,7/32,0]SM2(a,b;0,0;0,0;0,0;0,0;0,0)[O1:c:dsp]A2u(b)  0.00000
 106 Pm-3m[7/32,7/32,0]SM2(a,b;0,0;0,0;0,0;0,0;0,0)[O1:c:dsp]Eu_1(a)  0.00000
 107 Pm-3m[7/32,7/32,0]SM2(a,b;0,0;0,0;0,0;0,0;0,0)[O1:c:dsp]Eu_1(b)  0.00000
 108 Pm-3m[7/32,7/32,0]SM2(a,b;0,0;0,0;0,0;0,0;0,0)[O1:c:dsp]Eu_2(a)  0.00000
 109 Pm-3m[7/32,7/32,0]SM2(a,b;0,0;0,0;0,0;0,0;0,0)[O1:c:dsp]Eu_2(b)  0.00000
 110 Pm-3m[1/4,1/4,0]SM1(a,b;0,0;0,0;0,0;0,0;0,0)[O1:c:dsp]A2u(a)  0.00000
 111 Pm-3m[1/4,1/4,0]SM1(a,b;0,0;0,0;0,0;0,0;0,0)[O1:c:dsp]A2u(b)  0.00000
 112 Pm-3m[1/4,1/4,0]SM1(a,b;0,0;0,0;0,0;0,0;0,0)[O1:c:dsp]Eu_1(a)  0.00000
 113 Pm-3m[1/4,1/4,0]SM1(a,b;0,0;0,0;0,0;0,0;0,0)[O1:c:dsp]Eu_1(b)  0.00000
 114 Pm-3m[1/4,1/4,0]SM1(a,b;0,0;0,0;0,0;0,0;0,0)[O1:c:dsp]Eu_2(a)  0.00000
 115 Pm-3m[1/4,1/4,0]SM1(a,b;0,0;0,0;0,0;0,0;0,0)[O1:c:dsp]Eu_2(b)  0.00000
 116 Pm-3m[9/32,9/32,0]SM2(a,b;0,0;0,0;0,0;0,0;0,0)[O1:c:dsp]A2u(a)  0.00000
 117 Pm-3m[9/32,9/32,0]SM2(a,b;0,0;0,0;0,0;0,0;0,0)[O1:c:dsp]A2u(b)  0.00000
 118 Pm-3m[9/32,9/32,0]SM2(a,b;0,0;0,0;0,0;0,0;0,0)[O1:c:dsp]Eu_1(a)  0.00000
 119 Pm-3m[9/32,9/32,0]SM2(a,b;0,0;0,0;0,0;0,0;0,0)[O1:c:dsp]Eu_1(b)  0.00000
 120 Pm-3m[9/32,9/32,0]SM2(a,b;0,0;0,0;0,0;0,0;0,0)[O1:c:dsp]Eu_2(a)  0.00000
 121 Pm-3m[9/32,9/32,0]SM2(a,b;0,0;0,0;0,0;0,0;0,0)[O1:c:dsp]Eu_2(b)  0.00000
 122 Pm-3m[5/16,5/16,0]SM1(a,b;0,0;0,0;0,0;0,0;0,0)[O1:c:dsp]A2u(a)  0.00000
 123 Pm-3m[5/16,5/16,0]SM1(a,b;0,0;0,0;0,0;0,0;0,0)[O1:c:dsp]A2u(b)  0.00000
 124 Pm-3m[5/16,5/16,0]SM1(a,b;0,0;0,0;0,0;0,0;0,0)[O1:c:dsp]Eu_1(a)  0.00000
 125 Pm-3m[5/16,5/16,0]SM1(a,b;0,0;0,0;0,0;0,0;0,0)[O1:c:dsp]Eu_1(b)  0.00000
 126 Pm-3m[5/16,5/16,0]SM1(a,b;0,0;0,0;0,0;0,0;0,0)[O1:c:dsp]Eu_2(a)  0.00000
 127 Pm-3m[5/16,5/16,0]SM1(a,b;0,0;0,0;0,0;0,0;0,0)[O1:c:dsp]Eu_2(b)  0.00000
 128 Pm-3m[11/32,11/32,0]SM2(a,b;0,0;0,0;0,0;0,0;0,0)[O1:c:dsp]A2u(a)  0.00000
 129 Pm-3m[11/32,11/32,0]SM2(a,b;0,0;0,0;0,0;0,0;0,0)[O1:c:dsp]A2u(b)  0.00000
 130 Pm-3m[11/32,11/32,0]SM2(a,b;0,0;0,0;0,0;0,0;0,0)[O1:c:dsp]Eu_1(a)  0.00000
 131 Pm-3m[11/32,11/32,0]SM2(a,b;0,0;0,0;0,0;0,0;0,0)[O1:c:dsp]Eu_1(b)  0.00000
 132 Pm-3m[11/32,11/32,0]SM2(a,b;0,0;0,0;0,0;0,0;0,0)[O1:c:dsp]Eu_2(a)  0.00000
 133 Pm-3m[11/32,11/32,0]SM2(a,b;0,0;0,0;0,0;0,0;0,0)[O1:c:dsp]Eu_2(b)  0.00000
 134 Pm-3m[3/8,3/8,0]SM1(a,b;0,0;0,0;0,0;0,0;0,0)[O1:c:dsp]A2u(a)  0.00000
 135 Pm-3m[3/8,3/8,0]SM1(a,b;0,0;0,0;0,0;0,0;0,0)[O1:c:dsp]A2u(b)  0.00000
 136 Pm-3m[3/8,3/8,0]SM1(a,b;0,0;0,0;0,0;0,0;0,0)[O1:c:dsp]Eu_1(a)  0.00000
 137 Pm-3m[3/8,3/8,0]SM1(a,b;0,0;0,0;0,0;0,0;0,0)[O1:c:dsp]Eu_1(b)  0.00000
 138 Pm-3m[3/8,3/8,0]SM1(a,b;0,0;0,0;0,0;0,0;0,0)[O1:c:dsp]Eu_2(a)  0.00000
 139 Pm-3m[3/8,3/8,0]SM1(a,b;0,0;0,0;0,0;0,0;0,0)[O1:c:dsp]Eu_2(b)  0.00000
 140 Pm-3m[13/32,13/32,0]SM2(a,b;0,0;0,0;0,0;0,0;0,0)[O1:c:dsp]A2u(a)  0.00000
 141 Pm-3m[13/32,13/32,0]SM2(a,b;0,0;0,0;0,0;0,0;0,0)[O1:c:dsp]A2u(b)  0.00000
 142 Pm-3m[13/32,13/32,0]SM2(a,b;0,0;0,0;0,0;0,0;0,0)[O1:c:dsp]Eu_1(a)  0.00000
 143 Pm-3m[13/32,13/32,0]SM2(a,b;0,0;0,0;0,0;0,0;0,0)[O1:c:dsp]Eu_1(b)  0.00000
 144 Pm-3m[13/32,13/32,0]SM2(a,b;0,0;0,0;0,0;0,0;0,0)[O1:c:dsp]Eu_2(a)  0.00000
 145 Pm-3m[13/32,13/32,0]SM2(a,b;0,0;0,0;0,0;0,0;0,0)[O1:c:dsp]Eu_2(b)  0.00000
 146 Pm-3m[7/16,7/16,0]SM1(a,b;0,0;0,0;0,0;0,0;0,0)[O1:c:dsp]A2u(a)  0.00000
 147 Pm-3m[7/16,7/16,0]SM1(a,b;0,0;0,0;0,0;0,0;0,0)[O1:c:dsp]A2u(b)  0.00000
 148 Pm-3m[7/16,7/16,0]SM1(a,b;0,0;0,0;0,0;0,0;0,0)[O1:c:dsp]Eu_1(a)  0.00000
 149 Pm-3m[7/16,7/16,0]SM1(a,b;0,0;0,0;0,0;0,0;0,0)[O1:c:dsp]Eu_1(b)  0.00000
 150 Pm-3m[7/16,7/16,0]SM1(a,b;0,0;0,0;0,0;0,0;0,0)[O1:c:dsp]Eu_2(a)  0.00000
 151 Pm-3m[7/16,7/16,0]SM1(a,b;0,0;0,0;0,0;0,0;0,0)[O1:c:dsp]Eu_2(b)  0.00000
 152 Pm-3m[15/32,15/32,0]SM2(a,b;0,0;0,0;0,0;0,0;0,0)[O1:c:dsp]A2u(a)  0.00000
 153 Pm-3m[15/32,15/32,0]SM2(a,b;0,0;0,0;0,0;0,0;0,0)[O1:c:dsp]A2u(b)  0.00000
 154 Pm-3m[15/32,15/32,0]SM2(a,b;0,0;0,0;0,0;0,0;0,0)[O1:c:dsp]Eu_1(a)  0.00000
 155 Pm-3m[15/32,15/32,0]SM2(a,b;0,0;0,0;0,0;0,0;0,0)[O1:c:dsp]Eu_1(b)  0.00000
 156 Pm-3m[15/32,15/32,0]SM2(a,b;0,0;0,0;0,0;0,0;0,0)[O1:c:dsp]Eu_2(a)  0.00000
 157 Pm-3m[15/32,15/32,0]SM2(a,b;0,0;0,0;0,0;0,0;0,0)[O1:c:dsp]Eu_2(b)  0.00000
 158 Pm-3m[1/2,1/2,0]M1+(a;0;0)[O1:c:dsp]Eu(a)  0.00000
 159 Pm-3m[1/2,1/2,0]M4+(a;0;0)[O1:c:dsp]A2u(a)  0.00000
 160 Pm-3m[1/2,1/2,0]M5-(a,a;0,0;0,0)[O1:c:dsp]Eu(a)  0.00000

loop_
_iso_displacivemodenorm_ID
_iso_displacivemodenorm_value
   1  0.00199
   2  0.04509
   3  0.04509
   4  0.00282
   5  0.00282
   6  0.04509
   7  0.04509
   8  0.00282
   9  0.00282
  10  0.04509
  11  0.04509
  12  0.00282
  13  0.00282
  14  0.04509
  15  0.04509
  16  0.00282
  17  0.00282
  18  0.04509
  19  0.04509
  20  0.00282
  21  0.00282
  22  0.04509
  23  0.04509
  24  0.00282
  25  0.00282
  26  0.04509
  27  0.04509
  28  0.00282
  29  0.00282
  30  0.04509
  31  0.04509
  32  0.00199
  33  0.00199
  34  0.04509
  35  0.04509
  36  0.00282
  37  0.00282
  38  0.04509
  39  0.04509
  40  0.00282
  41  0.00282
  42  0.04509
  43  0.04509
  44  0.00282
  45  0.00282
  46  0.04509
  47  0.04509
  48  0.00282
  49  0.00282
  50  0.04509
  51  0.04509
  52  0.00282
  53  0.00282
  54  0.04509
  55  0.04509
  56  0.00282
  57  0.00282
  58  0.04509
  59  0.04509
  60  0.00282
  61  0.00282
  62  0.04509
  63  0.04509
  64  0.00199
  65  0.01594
  66  0.01127
  67  0.01127
  68  0.02244
  69  0.02244
  70  0.02244
  71  0.02244
  72  0.04509
  73  0.04509
  74  0.02211
  75  0.02211
  76  0.02211
  77  0.02211
  78  0.00282
  79  0.00282
  80  0.02244
  81  0.02244
  82  0.02244
  83  0.02244
  84  0.04509
  85  0.04509
  86  0.02083
  87  0.02083
  88  0.02083
  89  0.02083
  90  0.00282
  91  0.00282
  92  0.02244
  93  0.02244
  94  0.02244
  95  0.02244
  96  0.04509
  97  0.04509
  98  0.02211
  99  0.02211
 100  0.02211
 101  0.02211
 102  0.00282
 103  0.00282
 104  0.02244
 105  0.02244
 106  0.02244
 107  0.02244
 108  0.04509
 109  0.04509
 110  0.01594
 111  0.01594
 112  0.01594
 113  0.01594
 114  0.00282
 115  0.00282
 116  0.02244
 117  0.02244
 118  0.02244
 119  0.02244
 120  0.04509
 121  0.04509
 122  0.02211
 123  0.02211
 124  0.02211
 125  0.02211
 126  0.00282
 127  0.00282
 128  0.02244
 129  0.02244
 130  0.02244
 131  0.02244
 132  0.04509
 133  0.04509
 134  0.02083
 135  0.02083
 136  0.02083
 137  0.02083
 138  0.00282
 139  0.00282
 140  0.02244
 141  0.02244
 142  0.02244
 143  0.02244
 144  0.04509
 145  0.04509
 146  0.02211
 147  0.02211
 148  0.02211
 149  0.02211
 150  0.00282
 151  0.00282
 152  0.02244
 153  0.02244
 154  0.02244
 155  0.02244
 156  0.04509
 157  0.04509
 158  0.01594
 159  0.01594
 160  0.00199

loop_
_iso_deltacoordinate_ID
_iso_deltacoordinate_label
_iso_deltacoordinate_value
   1 Sr1_dx   0.00000
   2 Sr1_dy  -0.13476
   3 Sr2_dx   0.00000
   4 Sr2_dy  -0.10487
   5 Sr3_dx   0.00000
   6 Sr3_dy  -0.05901
   7 Sr4_dx   0.00000
   8 Sr4_dy  -0.00417
   9 Sr5_dx   0.00000
  10 Sr5_dy   0.05131
  11 Sr6_dx   0.00000
  12 Sr6_dy   0.09897
  13 Sr7_dx   0.00000
  14 Sr7_dy   0.13157
  15 Sr8_dx   0.00000
  16 Sr8_dy   0.14413
  17 Sr9_dx   0.00000
  18 Sr9_dy  -0.12216
  19 Sr10_dx   0.00000
  20 Sr10_dy  -0.08354
  21 Sr11_dx   0.00000
  22 Sr11_dy  -0.03221
  23 Sr12_dx   0.00000
  24 Sr12_dy   0.02403
  25 Sr13_dx   0.00000
  26 Sr13_dy   0.07661
  27 Sr14_dx   0.00000
  28 Sr14_dy   0.11753
  29 Sr15_dx   0.00000
  30 Sr15_dy   0.14055
  31 Sr16_dx   0.00000
  32 Sr16_dy   0.14218
  33 Ti1_dx   0.00000
  34 Ti1_dy  -0.10580
  35 Ti2_dx   0.00000
  36 Ti2_dy  -0.06371
  37 Ti3_dx   0.00000
  38 Ti3_dy  -0.01192
  39 Ti4_dx   0.00000
  40 Ti4_dy   0.04168
  41 Ti5_dx   0.00000
  42 Ti5_dy   0.08894
  43 Ti6_dx   0.00000
  44 Ti6_dy   0.12266
  45 Ti7_dx   0.00000
  46 Ti7_dy   0.13771
  47 Ti8_dx   0.00000
  48 Ti8_dy   0.13179
  49 Ti9_dx   0.00000
  50 Ti9_dy  -0.08642
  51 Ti10_dx   0.00000
  52 Ti10_dy  -0.03856
  53 Ti11_dx   0.00000
  54 Ti11_dy   0.01517
  55 Ti12_dx   0.00000
  56 Ti12_dy   0.06659
  57 Ti13_dx   0.00000
  58 Ti13_dy   0.10787
  59 Ti14_dx   0.00000
  60 Ti14_dy   0.13273
  61 Ti15_dx   0.00000
  62 Ti15_dy   0.13739
  63 Ti16_dx   0.00000
  64 Ti16_dy   0.12112
  65 O1_dx  -0.00019
  66 O1_dy  -0.08687
  67 O2_dx  -0.00023
  68 O2_dy  -0.03968
  69 O3_dx  -0.00024
  70 O3_dy   0.01355
  71 O4_dx  -0.00021
  72 O4_dy   0.06472
  73 O5_dx  -0.00015
  74 O5_dy   0.10603
  75 O6_dx  -0.00007
  76 O6_dy   0.13120
  77 O7_dx   0.00003
  78 O7_dy   0.13640
  79 O8_dx   0.00012
  80 O8_dy   0.12083
  81 O9_dx   0.00019
  82 O9_dy   0.08687
  83 O10_dx   0.00023
  84 O10_dy   0.03968
  85 O11_dx   0.00024
  86 O11_dy  -0.01355
  87 O12_dx   0.00021
  88 O12_dy  -0.06472
  89 O13_dx   0.00015
  90 O13_dy  -0.10603
  91 O14_dx   0.00007
  92 O14_dy  -0.13120
  93 O15_dx  -0.00003
  94 O15_dy  -0.13640
  95 O16_dx  -0.00012
  96 O16_dy  -0.12083
  97 O17_dx  -0.00021
  98 O17_dy  -0.06451
  99 O18_dx  -0.00024
 100 O18_dy  -0.01332
 101 O19_dx  -0.00023
 102 O19_dy   0.03990
 103 O20_dx  -0.00018
 104 O20_dy   0.08705
 105 O21_dx  -0.00011
 106 O21_dy   0.12094
 107 O22_dx  -0.00002
 108 O22_dy   0.13642
 109 O23_dx   0.00007
 110 O23_dy   0.13114
 111 O24_dx   0.00015
 112 O24_dy   0.10588
 113 O25_dx   0.00021
 114 O25_dy   0.06451
 115 O26_dx   0.00024
 116 O26_dy   0.01332
 117 O27_dx   0.00023
 118 O27_dy  -0.03990
 119 O28_dx   0.00018
 120 O28_dy  -0.08705
 121 O29_dx   0.00011
 122 O29_dy  -0.12094
 123 O30_dx   0.00002
 124 O30_dy  -0.13642
 125 O31_dx  -0.00007
 126 O31_dy  -0.13114
 127 O32_dx  -0.00015
 128 O32_dy  -0.10588
 129 O33_dx   0.00000
 130 O33_dy  -0.07481
 131 O34_dx   0.00000
 132 O34_dy  -0.02499
 133 O35_dx   0.00000
 134 O35_dy   0.02863
 135 O36_dx   0.00000
 136 O36_dy   0.07789
 137 O37_dx   0.00000
 138 O37_dy   0.11530
 139 O38_dx   0.00000
 140 O38_dy   0.13515
 141 O39_dx   0.00000
 142 O39_dy   0.13443
 143 O40_dx   0.00000
 144 O40_dy   0.11324
 145 O41_dx   0.00000
 146 O41_dy  -0.05088
 147 O42_dx   0.00000
 148 O42_dy   0.00185
 149 O43_dx   0.00000
 150 O43_dy   0.05430
 151 O44_dx   0.00000
 152 O44_dy   0.09849
 153 O45_dx   0.00000
 154 O45_dy   0.12768
 155 O46_dx   0.00000
 156 O46_dy   0.13743
 157 O47_dx   0.00000
 158 O47_dy   0.12626
 159 O48_dx   0.00000
 160 O48_dy   0.09587

loop_
_iso_coordinate_label
_iso_coordinate_formula
Sr1_x                   "  -0.03113 + Sr1_dx"
Sr1_y                   "1/2 + Sr1_dy"
Sr1_z                   "0"
Sr2_x                   "   0.03137 + Sr2_dx"
Sr2_y                   "1/2 + Sr2_dy"
Sr2_z                   "0"
Sr3_x                   "   0.09387 + Sr3_dx"
Sr3_y                   "1/2 + Sr3_dy"
Sr3_z                   "0"
Sr4_x                   "   0.15637 + Sr4_dx"
Sr4_y                   "1/2 + Sr4_dy"
Sr4_z                   "0"
Sr5_x                   "   0.21887 + Sr5_dx"
Sr5_y                   "1/2 + Sr5_dy"
Sr5_z                   "0"
Sr6_x                   "   0.28137 + Sr6_dx"
Sr6_y                   "1/2 + Sr6_dy"
Sr6_z                   "0"
Sr7_x                   "   0.34387 + Sr7_dx"
Sr7_y                   "1/2 + Sr7_dy"
Sr7_z                   "0"
Sr8_x                   "   0.40637 + Sr8_dx"
Sr8_y                   "1/2 + Sr8_dy"
Sr8_z                   "0"
Sr9_x                   "   0.00012 + Sr9_dx"
Sr9_y                   "1 + Sr9_dy"
Sr9_z                   "0"
Sr10_x                  "   0.06262 + Sr10_dx"
Sr10_y                  "1 + Sr10_dy"
Sr10_z                  "0"
Sr11_x                  "   0.12512 + Sr11_dx"
Sr11_y                  "0 + Sr11_dy"
Sr11_z                  "0"
Sr12_x                  "   0.18762 + Sr12_dx"
Sr12_y                  "0 + Sr12_dy"
Sr12_z                  "0"
Sr13_x                  "   0.25012 + Sr13_dx"
Sr13_y                  "0 + Sr13_dy"
Sr13_z                  "0"
Sr14_x                  "   0.31262 + Sr14_dx"
Sr14_y                  "0 + Sr14_dy"
Sr14_z                  "0"
Sr15_x                  "   0.37512 + Sr15_dx"
Sr15_y                  "0 + Sr15_dy"
Sr15_z                  "0"
Sr16_x                  "   0.43762 + Sr16_dx"
Sr16_y                  "0 + Sr16_dy"
Sr16_z                  "0"
Ti1_x                   "   0.00012 + Ti1_dx"
Ti1_y                   "1/2 + Ti1_dy"
Ti1_z                   "1/2"
Ti2_x                   "   0.06262 + Ti2_dx"
Ti2_y                   "1/2 + Ti2_dy"
Ti2_z                   "1/2"
Ti3_x                   "   0.12512 + Ti3_dx"
Ti3_y                   "1/2 + Ti3_dy"
Ti3_z                   "1/2"
Ti4_x                   "   0.18762 + Ti4_dx"
Ti4_y                   "1/2 + Ti4_dy"
Ti4_z                   "1/2"
Ti5_x                   "   0.25012 + Ti5_dx"
Ti5_y                   "1/2 + Ti5_dy"
Ti5_z                   "1/2"
Ti6_x                   "   0.31262 + Ti6_dx"
Ti6_y                   "1/2 + Ti6_dy"
Ti6_z                   "1/2"
Ti7_x                   "   0.37512 + Ti7_dx"
Ti7_y                   "1/2 + Ti7_dy"
Ti7_z                   "1/2"
Ti8_x                   "   0.43762 + Ti8_dx"
Ti8_y                   "1/2 + Ti8_dy"
Ti8_z                   "1/2"
Ti9_x                   "   0.03137 + Ti9_dx"
Ti9_y                   "1 + Ti9_dy"
Ti9_z                   "1/2"
Ti10_x                  "   0.09387 + Ti10_dx"
Ti10_y                  "0 + Ti10_dy"
Ti10_z                  "1/2"
Ti11_x                  "   0.15637 + Ti11_dx"
Ti11_y                  "0 + Ti11_dy"
Ti11_z                  "1/2"
Ti12_x                  "   0.21887 + Ti12_dx"
Ti12_y                  "0 + Ti12_dy"
Ti12_z                  "1/2"
Ti13_x                  "   0.28137 + Ti13_dx"
Ti13_y                  "0 + Ti13_dy"
Ti13_z                  "1/2"
Ti14_x                  "   0.34387 + Ti14_dx"
Ti14_y                  "0 + Ti14_dy"
Ti14_z                  "1/2"
Ti15_x                  "   0.40637 + Ti15_dx"
Ti15_y                  "0 + Ti15_dy"
Ti15_z                  "1/2"
Ti16_x                  "   0.46887 + Ti16_dx"
Ti16_y                  "0 + Ti16_dy"
Ti16_z                  "1/2"
O1_x                    "  -0.01551 + O1_dx"
O1_y                    "1/4 + O1_dy"
O1_z                    "1/2"
O2_x                    "   0.04699 + O2_dx"
O2_y                    "1/4 + O2_dy"
O2_z                    "1/2"
O3_x                    "   0.10949 + O3_dx"
O3_y                    "1/4 + O3_dy"
O3_z                    "1/2"
O4_x                    "   0.17199 + O4_dx"
O4_y                    "1/4 + O4_dy"
O4_z                    "1/2"
O5_x                    "   0.23449 + O5_dx"
O5_y                    "1/4 + O5_dy"
O5_z                    "1/2"
O6_x                    "   0.29699 + O6_dx"
O6_y                    "1/4 + O6_dy"
O6_z                    "1/2"
O7_x                    "   0.35949 + O7_dx"
O7_y                    "1/4 + O7_dy"
O7_z                    "1/2"
O8_x                    "   0.42199 + O8_dx"
O8_y                    "1/4 + O8_dy"
O8_z                    "1/2"
O9_x                    "   0.48449 + O9_dx"
O9_y                    "1/4 + O9_dy"
O9_z                    "1/2"
O10_x                   "   0.54699 + O10_dx"
O10_y                   "1/4 + O10_dy"
O10_z                   "1/2"
O11_x                   "   0.60949 + O11_dx"
O11_y                   "1/4 + O11_dy"
O11_z                   "1/2"
O12_x                   "   0.67199 + O12_dx"
O12_y                   "1/4 + O12_dy"
O12_z                   "1/2"
O13_x                   "   0.73449 + O13_dx"
O13_y                   "1/4 + O13_dy"
O13_z                   "1/2"
O14_x                   "   0.79699 + O14_dx"
O14_y                   "1/4 + O14_dy"
O14_z                   "1/2"
O15_x                   "   0.85949 + O15_dx"
O15_y                   "1/4 + O15_dy"
O15_z                   "1/2"
O16_x                   "   0.92199 + O16_dx"
O16_y                   "1/4 + O16_dy"
O16_z                   "1/2"
O17_x                   "   0.01574 + O17_dx"
O17_y                   "3/4 + O17_dy"
O17_z                   "1/2"
O18_x                   "   0.07824 + O18_dx"
O18_y                   "3/4 + O18_dy"
O18_z                   "1/2"
O19_x                   "   0.14074 + O19_dx"
O19_y                   "3/4 + O19_dy"
O19_z                   "1/2"
O20_x                   "   0.20324 + O20_dx"
O20_y                   "3/4 + O20_dy"
O20_z                   "1/2"
O21_x                   "   0.26574 + O21_dx"
O21_y                   "3/4 + O21_dy"
O21_z                   "1/2"
O22_x                   "   0.32824 + O22_dx"
O22_y                   "3/4 + O22_dy"
O22_z                   "1/2"
O23_x                   "   0.39074 + O23_dx"
O23_y                   "3/4 + O23_dy"
O23_z                   "1/2"
O24_x                   "   0.45324 + O24_dx"
O24_y                   "3/4 + O24_dy"
O24_z                   "1/2"
O25_x                   "   0.51574 + O25_dx"
O25_y                   "3/4 + O25_dy"
O25_z                   "1/2"
O26_x                   "   0.57824 + O26_dx"
O26_y                   "3/4 + O26_dy"
O26_z                   "1/2"
O27_x                   "   0.64074 + O27_dx"
O27_y                   "3/4 + O27_dy"
O27_z                   "1/2"
O28_x                   "   0.70324 + O28_dx"
O28_y                   "3/4 + O28_dy"
O28_z                   "1/2"
O29_x                   "   0.76574 + O29_dx"
O29_y                   "3/4 + O29_dy"
O29_z                   "1/2"
O30_x                   "   0.82824 + O30_dx"
O30_y                   "3/4 + O30_dy"
O30_z                   "1/2"
O31_x                   "   0.89074 + O31_dx"
O31_y                   "3/4 + O31_dy"
O31_z                   "1/2"
O32_x                   "  -0.04676 + O32_dx"
O32_y                   "3/4 + O32_dy"
O32_z                   "1/2"
O33_x                   "   0.00012 + O33_dx"
O33_y                   "1/2 + O33_dy"
O33_z                   "0"
O34_x                   "   0.06262 + O34_dx"
O34_y                   "1/2 + O34_dy"
O34_z                   "0"
O35_x                   "   0.12512 + O35_dx"
O35_y                   "1/2 + O35_dy"
O35_z                   "0"
O36_x                   "   0.18762 + O36_dx"
O36_y                   "1/2 + O36_dy"
O36_z                   "0"
O37_x                   "   0.25012 + O37_dx"
O37_y                   "1/2 + O37_dy"
O37_z                   "0"
O38_x                   "   0.31262 + O38_dx"
O38_y                   "1/2 + O38_dy"
O38_z                   "0"
O39_x                   "   0.37512 + O39_dx"
O39_y                   "1/2 + O39_dy"
O39_z                   "0"
O40_x                   "   0.43762 + O40_dx"
O40_y                   "1/2 + O40_dy"
O40_z                   "0"
O41_x                   "   0.03137 + O41_dx"
O41_y                   "1 + O41_dy"
O41_z                   "0"
O42_x                   "   0.09387 + O42_dx"
O42_y                   "0 + O42_dy"
O42_z                   "0"
O43_x                   "   0.15637 + O43_dx"
O43_y                   "0 + O43_dy"
O43_z                   "0"
O44_x                   "   0.21887 + O44_dx"
O44_y                   "0 + O44_dy"
O44_z                   "0"
O45_x                   "   0.28137 + O45_dx"
O45_y                   "0 + O45_dy"
O45_z                   "0"
O46_x                   "   0.34387 + O46_dx"
O46_y                   "0 + O46_dy"
O46_z                   "0"
O47_x                   "   0.40637 + O47_dx"
O47_y                   "0 + O47_dy"
O47_z                   "0"
O48_x                   "   0.46887 + O48_dx"
O48_y                   "0 + O48_dy"
O48_z                   "0"

# matrix conversion: deltacoords(lattice units) = matrix.(modeamplitudes*modenormfactors)
# Square matrix with _iso_displacivemode_number rows and columns

loop_
_iso_displacivemodematrix_row
_iso_displacivemodematrix_col
_iso_displacivemodematrix_value
    1    1   1.00000
    1    4   0.92388
    1    5  -0.38268
    1    8  -0.70711
    1    9  -0.70711
    1   12  -0.38268
    1   13   0.92388
    1   16   1.00000
    1   20  -0.38268
    1   21  -0.92388
    1   24  -0.70711
    1   25   0.70711
    1   28   0.92388
    1   29   0.38268
    1   32  -1.00000
    2    2   0.83147
    2    3   0.55557
    2    6   0.19509
    2    7  -0.98079
    2   10  -0.98079
    2   11   0.19509
    2   14   0.55557
    2   15   0.83147
    2   18   0.55557
    2   19  -0.83147
    2   22  -0.98079
    2   23  -0.19509
    2   26   0.19509
    2   27   0.98079
    2   30   0.83147
    2   31  -0.55557
    3    1   1.00000
    3    4   0.38268
    3    5  -0.92388
    3    8  -0.70711
    3    9   0.70711
    3   12   0.92388
    3   13  -0.38268
    3   16  -1.00000
    3   20   0.92388
    3   21   0.38268
    3   24  -0.70711
    3   25  -0.70711
    3   28   0.38268
    3   29   0.92388
    3   32  -1.00000
    4    2   0.98079
    4    3   0.19509
    4    6  -0.83147
    4    7  -0.55557
    4   10   0.55557
    4   11   0.83147
    4   14  -0.19509
    4   15  -0.98079
    4   18  -0.19509
    4   19   0.98079
    4   22   0.55557
    4   23  -0.83147
    4   26  -0.83147
    4   27   0.55557
    4   30   0.98079
    4   31  -0.19509
    5    1   1.00000
    5    4  -0.38268
    5    5  -0.92388
    5    8   0.70711
    5    9   0.70711
    5   12  -0.92388
    5   13  -0.38268
    5   16   1.00000
    5   20  -0.92388
    5   21   0.38268
    5   24   0.70711
    5   25  -0.70711
    5   28  -0.38268
    5   29   0.92388
    5   32  -1.00000
    6    2   0.98079
    6    3  -0.19509
    6    6  -0.83147
    6    7   0.55557
    6   10   0.55557
    6   11  -0.83147
    6   14  -0.19509
    6   15   0.98079
    6   18  -0.19509
    6   19  -0.98079
    6   22   0.55557
    6   23   0.83147
    6   26  -0.83147
    6   27  -0.55557
    6   30   0.98079
    6   31   0.19509
    7    1   1.00000
    7    4  -0.92388
    7    5  -0.38268
    7    8   0.70711
    7    9  -0.70711
    7   12   0.38268
    7   13   0.92388
    7   16  -1.00000
    7   20   0.38268
    7   21  -0.92388
    7   24   0.70711
    7   25   0.70711
    7   28  -0.92388
    7   29   0.38268
    7   32  -1.00000
    8    2   0.83147
    8    3  -0.55557
    8    6   0.19509
    8    7   0.98079
    8   10  -0.98079
    8   11  -0.19509
    8   14   0.55557
    8   15  -0.83147
    8   18   0.55557
    8   19   0.83147
    8   22  -0.98079
    8   23   0.19509
    8   26   0.19509
    8   27  -0.98079
    8   30   0.83147
    8   31   0.55557
    9    1   1.00000
    9    4  -0.92388
    9    5   0.38268
    9    8  -0.70711
    9    9  -0.70711
    9   12   0.38268
    9   13  -0.92388
    9   16   1.00000
    9   20   0.38268
    9   21   0.92388
    9   24  -0.70711
    9   25   0.70711
    9   28  -0.92388
    9   29  -0.38268
    9   32  -1.00000
   10    2   0.55557
   10    3  -0.83147
   10    6   0.98079
   10    7   0.19509
   10   10   0.19509
   10   11   0.98079
   10   14  -0.83147
   10   15   0.55557
   10   18  -0.83147
   10   19  -0.55557
   10   22   0.19509
   10   23  -0.98079
   10   26   0.98079
   10   27  -0.19509
   10   30   0.55557
   10   31   0.83147
   11    1   1.00000
   11    4  -0.38268
   11    5   0.92388
   11    8  -0.70711
   11    9   0.70711
   11   12  -0.92388
   11   13   0.38268
   11   16  -1.00000
   11   20  -0.92388
   11   21  -0.38268
   11   24  -0.70711
   11   25  -0.70711
   11   28  -0.38268
   11   29  -0.92388
   11   32  -1.00000
   12    2   0.19509
   12    3  -0.98079
   12    6   0.55557
   12    7  -0.83147
   12   10   0.83147
   12   11  -0.55557
   12   14   0.98079
   12   15  -0.19509
   12   18   0.98079
   12   19   0.19509
   12   22   0.83147
   12   23   0.55557
   12   26   0.55557
   12   27   0.83147
   12   30   0.19509
   12   31   0.98079
   13    1   1.00000
   13    4   0.38268
   13    5   0.92388
   13    8   0.70711
   13    9   0.70711
   13   12   0.92388
   13   13   0.38268
   13   16   1.00000
   13   20   0.92388
   13   21  -0.38268
   13   24   0.70711
   13   25  -0.70711
   13   28   0.38268
   13   29  -0.92388
   13   32  -1.00000
   14    2  -0.19509
   14    3  -0.98079
   14    6  -0.55557
   14    7  -0.83147
   14   10  -0.83147
   14   11  -0.55557
   14   14  -0.98079
   14   15  -0.19509
   14   18  -0.98079
   14   19   0.19509
   14   22  -0.83147
   14   23   0.55557
   14   26  -0.55557
   14   27   0.83147
   14   30  -0.19509
   14   31   0.98079
   15    1   1.00000
   15    4   0.92388
   15    5   0.38268
   15    8   0.70711
   15    9  -0.70711
   15   12  -0.38268
   15   13  -0.92388
   15   16  -1.00000
   15   20  -0.38268
   15   21   0.92388
   15   24   0.70711
   15   25   0.70711
   15   28   0.92388
   15   29  -0.38268
   15   32  -1.00000
   16    2  -0.55557
   16    3  -0.83147
   16    6  -0.98079
   16    7   0.19509
   16   10  -0.19509
   16   11   0.98079
   16   14   0.83147
   16   15   0.55557
   16   18   0.83147
   16   19  -0.55557
   16   22  -0.19509
   16   23  -0.98079
   16   26  -0.98079
   16   27  -0.19509
   16   30  -0.55557
   16   31   0.83147
   17    1   1.00000
   17    4   0.70711
   17    5  -0.70711
   17    8  -1.00000
   17   12   0.70711
   17   13   0.70711
   17   17  -1.00000
   17   20  -0.70711
   17   21   0.70711
   17   24   1.00000
   17   28  -0.70711
   17   29  -0.70711
   17   32   1.00000
   18    2   0.92388
   18    3   0.38268
   18    6  -0.38268
   18    7  -0.92388
   18   10  -0.38268
   18   11   0.92388
   18   14   0.92388
   18   15  -0.38268
   18   18  -0.92388
   18   19  -0.38268
   18   22   0.38268
   18   23   0.92388
   18   26   0.38268
   18   27  -0.92388
   18   30  -0.92388
   18   31   0.38268
   19    1   1.00000
   19    5  -1.00000
   19    9   1.00000
   19   13  -1.00000
   19   17   1.00000
   19   21  -1.00000
   19   25   1.00000
   19   29  -1.00000
   19   32   1.00000
   20    2   1.00000
   20    6  -1.00000
   20   10   1.00000
   20   14  -1.00000
   20   18   1.00000
   20   22  -1.00000
   20   26   1.00000
   20   30  -1.00000
   21    1   1.00000
   21    4  -0.70711
   21    5  -0.70711
   21    8   1.00000
   21   12  -0.70711
   21   13   0.70711
   21   17  -1.00000
   21   20   0.70711
   21   21   0.70711
   21   24  -1.00000
   21   28   0.70711
   21   29  -0.70711
   21   32   1.00000
   22    2   0.92388
   22    3  -0.38268
   22    6  -0.38268
   22    7   0.92388
   22   10  -0.38268
   22   11  -0.92388
   22   14   0.92388
   22   15   0.38268
   22   18  -0.92388
   22   19   0.38268
   22   22   0.38268
   22   23  -0.92388
   22   26   0.38268
   22   27   0.92388
   22   30  -0.92388
   22   31  -0.38268
   23    1   1.00000
   23    4  -1.00000
   23    9  -1.00000
   23   12   1.00000
   23   17   1.00000
   23   20  -1.00000
   23   25  -1.00000
   23   28   1.00000
   23   32   1.00000
   24    2   0.70711
   24    3  -0.70711
   24    6   0.70711
   24    7   0.70711
   24   10  -0.70711
   24   11   0.70711
   24   14  -0.70711
   24   15  -0.70711
   24   18   0.70711
   24   19  -0.70711
   24   22   0.70711
   24   23   0.70711
   24   26  -0.70711
   24   27   0.70711
   24   30  -0.70711
   24   31  -0.70711
   25    1   1.00000
   25    4  -0.70711
   25    5   0.70711
   25    8  -1.00000
   25   12  -0.70711
   25   13  -0.70711
   25   17  -1.00000
   25   20   0.70711
   25   21  -0.70711
   25   24   1.00000
   25   28   0.70711
   25   29   0.70711
   25   32   1.00000
   26    2   0.38268
   26    3  -0.92388
   26    6   0.92388
   26    7  -0.38268
   26   10   0.92388
   26   11   0.38268
   26   14   0.38268
   26   15   0.92388
   26   18  -0.38268
   26   19   0.92388
   26   22  -0.92388
   26   23   0.38268
   26   26  -0.92388
   26   27  -0.38268
   26   30  -0.38268
   26   31  -0.92388
   27    1   1.00000
   27    5   1.00000
   27    9   1.00000
   27   13   1.00000
   27   17   1.00000
   27   21   1.00000
   27   25   1.00000
   27   29   1.00000
   27   32   1.00000
   28    3  -1.00000
   28    7  -1.00000
   28   11  -1.00000
   28   15  -1.00000
   28   19  -1.00000
   28   23  -1.00000
   28   27  -1.00000
   28   31  -1.00000
   29    1   1.00000
   29    4   0.70711
   29    5   0.70711
   29    8   1.00000
   29   12   0.70711
   29   13  -0.70711
   29   17  -1.00000
   29   20  -0.70711
   29   21  -0.70711
   29   24  -1.00000
   29   28  -0.70711
   29   29   0.70711
   29   32   1.00000
   30    2  -0.38268
   30    3  -0.92388
   30    6  -0.92388
   30    7  -0.38268
   30   10  -0.92388
   30   11   0.38268
   30   14  -0.38268
   30   15   0.92388
   30   18   0.38268
   30   19   0.92388
   30   22   0.92388
   30   23   0.38268
   30   26   0.92388
   30   27  -0.38268
   30   30   0.38268
   30   31  -0.92388
   31    1   1.00000
   31    4   1.00000
   31    9  -1.00000
   31   12  -1.00000
   31   17   1.00000
   31   20   1.00000
   31   25  -1.00000
   31   28  -1.00000
   31   32   1.00000
   32    2  -0.70711
   32    3  -0.70711
   32    6  -0.70711
   32    7   0.70711
   32   10   0.70711
   32   11   0.70711
   32   14   0.70711
   32   15  -0.70711
   32   18  -0.70711
   32   19  -0.70711
   32   22  -0.70711
   32   23   0.70711
   32   26   0.70711
   32   27   0.70711
   32   30   0.70711
   32   31  -0.70711
   33   33   1.00000
   33   36   0.70711
   33   37  -0.70711
   33   40  -1.00000
   33   44   0.70711
   33   45   0.70711
   33   49  -1.00000
   33   52  -0.70711
   33   53   0.70711
   33   56   1.00000
   33   60  -0.70711
   33   61  -0.70711
   33   64  -1.00000
   34   34   0.92388
   34   35   0.38268
   34   38  -0.38268
   34   39  -0.92388
   34   42  -0.38268
   34   43   0.92388
   34   46   0.92388
   34   47  -0.38268
   34   50  -0.92388
   34   51  -0.38268
   34   54   0.38268
   34   55   0.92388
   34   58   0.38268
   34   59  -0.92388
   34   62  -0.92388
   34   63   0.38268
   35   33   1.00000
   35   37  -1.00000
   35   41   1.00000
   35   45  -1.00000
   35   49   1.00000
   35   53  -1.00000
   35   57   1.00000
   35   61  -1.00000
   35   64  -1.00000
   36   34   1.00000
   36   38  -1.00000
   36   42   1.00000
   36   46  -1.00000
   36   50   1.00000
   36   54  -1.00000
   36   58   1.00000
   36   62  -1.00000
   37   33   1.00000
   37   36  -0.70711
   37   37  -0.70711
   37   40   1.00000
   37   44  -0.70711
   37   45   0.70711
   37   49  -1.00000
   37   52   0.70711
   37   53   0.70711
   37   56  -1.00000
   37   60   0.70711
   37   61  -0.70711
   37   64  -1.00000
   38   34   0.92388
   38   35  -0.38268
   38   38  -0.38268
   38   39   0.92388
   38   42  -0.38268
   38   43  -0.92388
   38   46   0.92388
   38   47   0.38268
   38   50  -0.92388
   38   51   0.38268
   38   54   0.38268
   38   55  -0.92388
   38   58   0.38268
   38   59   0.92388
   38   62  -0.92388
   38   63  -0.38268
   39   33   1.00000
   39   36  -1.00000
   39   41  -1.00000
   39   44   1.00000
   39   49   1.00000
   39   52  -1.00000
   39   57  -1.00000
   39   60   1.00000
   39   64  -1.00000
   40   34   0.70711
   40   35  -0.70711
   40   38   0.70711
   40   39   0.70711
   40   42  -0.70711
   40   43   0.70711
   40   46  -0.70711
   40   47  -0.70711
   40   50   0.70711
   40   51  -0.70711
   40   54   0.70711
   40   55   0.70711
   40   58  -0.70711
   40   59   0.70711
   40   62  -0.70711
   40   63  -0.70711
   41   33   1.00000
   41   36  -0.70711
   41   37   0.70711
   41   40  -1.00000
   41   44  -0.70711
   41   45  -0.70711
   41   49  -1.00000
   41   52   0.70711
   41   53  -0.70711
   41   56   1.00000
   41   60   0.70711
   41   61   0.70711
   41   64  -1.00000
   42   34   0.38268
   42   35  -0.92388
   42   38   0.92388
   42   39  -0.38268
   42   42   0.92388
   42   43   0.38268
   42   46   0.38268
   42   47   0.92388
   42   50  -0.38268
   42   51   0.92388
   42   54  -0.92388
   42   55   0.38268
   42   58  -0.92388
   42   59  -0.38268
   42   62  -0.38268
   42   63  -0.92388
   43   33   1.00000
   43   37   1.00000
   43   41   1.00000
   43   45   1.00000
   43   49   1.00000
   43   53   1.00000
   43   57   1.00000
   43   61   1.00000
   43   64  -1.00000
   44   35  -1.00000
   44   39  -1.00000
   44   43  -1.00000
   44   47  -1.00000
   44   51  -1.00000
   44   55  -1.00000
   44   59  -1.00000
   44   63  -1.00000
   45   33   1.00000
   45   36   0.70711
   45   37   0.70711
   45   40   1.00000
   45   44   0.70711
   45   45  -0.70711
   45   49  -1.00000
   45   52  -0.70711
   45   53  -0.70711
   45   56  -1.00000
   45   60  -0.70711
   45   61   0.70711
   45   64  -1.00000
   46   34  -0.38268
   46   35  -0.92388
   46   38  -0.92388
   46   39  -0.38268
   46   42  -0.92388
   46   43   0.38268
   46   46  -0.38268
   46   47   0.92388
   46   50   0.38268
   46   51   0.92388
   46   54   0.92388
   46   55   0.38268
   46   58   0.92388
   46   59  -0.38268
   46   62   0.38268
   46   63  -0.92388
   47   33   1.00000
   47   36   1.00000
   47   41  -1.00000
   47   44  -1.00000
   47   49   1.00000
   47   52   1.00000
   47   57  -1.00000
   47   60  -1.00000
   47   64  -1.00000
   48   34  -0.70711
   48   35  -0.70711
   48   38  -0.70711
   48   39   0.70711
   48   42   0.70711
   48   43   0.70711
   48   46   0.70711
   48   47  -0.70711
   48   50  -0.70711
   48   51  -0.70711
   48   54  -0.70711
   48   55   0.70711
   48   58   0.70711
   48   59   0.70711
   48   62   0.70711
   48   63  -0.70711
   49   33   1.00000
   49   36   0.38268
   49   37  -0.92388
   49   40  -0.70711
   49   41   0.70711
   49   44   0.92388
   49   45  -0.38268
   49   48  -1.00000
   49   52   0.92388
   49   53   0.38268
   49   56  -0.70711
   49   57  -0.70711
   49   60   0.38268
   49   61   0.92388
   49   64   1.00000
   50   34   0.98079
   50   35   0.19509
   50   38  -0.83147
   50   39  -0.55557
   50   42   0.55557
   50   43   0.83147
   50   46  -0.19509
   50   47  -0.98079
   50   50  -0.19509
   50   51   0.98079
   50   54   0.55557
   50   55  -0.83147
   50   58  -0.83147
   50   59   0.55557
   50   62   0.98079
   50   63  -0.19509
   51   33   1.00000
   51   36  -0.38268
   51   37  -0.92388
   51   40   0.70711
   51   41   0.70711
   51   44  -0.92388
   51   45  -0.38268
   51   48   1.00000
   51   52  -0.92388
   51   53   0.38268
   51   56   0.70711
   51   57  -0.70711
   51   60  -0.38268
   51   61   0.92388
   51   64   1.00000
   52   34   0.98079
   52   35  -0.19509
   52   38  -0.83147
   52   39   0.55557
   52   42   0.55557
   52   43  -0.83147
   52   46  -0.19509
   52   47   0.98079
   52   50  -0.19509
   52   51  -0.98079
   52   54   0.55557
   52   55   0.83147
   52   58  -0.83147
   52   59  -0.55557
   52   62   0.98079
   52   63   0.19509
   53   33   1.00000
   53   36  -0.92388
   53   37  -0.38268
   53   40   0.70711
   53   41  -0.70711
   53   44   0.38268
   53   45   0.92388
   53   48  -1.00000
   53   52   0.38268
   53   53  -0.92388
   53   56   0.70711
   53   57   0.70711
   53   60  -0.92388
   53   61   0.38268
   53   64   1.00000
   54   34   0.83147
   54   35  -0.55557
   54   38   0.19509
   54   39   0.98079
   54   42  -0.98079
   54   43  -0.19509
   54   46   0.55557
   54   47  -0.83147
   54   50   0.55557
   54   51   0.83147
   54   54  -0.98079
   54   55   0.19509
   54   58   0.19509
   54   59  -0.98079
   54   62   0.83147
   54   63   0.55557
   55   33   1.00000
   55   36  -0.92388
   55   37   0.38268
   55   40  -0.70711
   55   41  -0.70711
   55   44   0.38268
   55   45  -0.92388
   55   48   1.00000
   55   52   0.38268
   55   53   0.92388
   55   56  -0.70711
   55   57   0.70711
   55   60  -0.92388
   55   61  -0.38268
   55   64   1.00000
   56   34   0.55557
   56   35  -0.83147
   56   38   0.98079
   56   39   0.19509
   56   42   0.19509
   56   43   0.98079
   56   46  -0.83147
   56   47   0.55557
   56   50  -0.83147
   56   51  -0.55557
   56   54   0.19509
   56   55  -0.98079
   56   58   0.98079
   56   59  -0.19509
   56   62   0.55557
   56   63   0.83147
   57   33   1.00000
   57   36  -0.38268
   57   37   0.92388
   57   40  -0.70711
   57   41   0.70711
   57   44  -0.92388
   57   45   0.38268
   57   48  -1.00000
   57   52  -0.92388
   57   53  -0.38268
   57   56  -0.70711
   57   57  -0.70711
   57   60  -0.38268
   57   61  -0.92388
   57   64   1.00000
   58   34   0.19509
   58   35  -0.98079
   58   38   0.55557
   58   39  -0.83147
   58   42   0.83147
   58   43  -0.55557
   58   46   0.98079
   58   47  -0.19509
   58   50   0.98079
   58   51   0.19509
   58   54   0.83147
   58   55   0.55557
   58   58   0.55557
   58   59   0.83147
   58   62   0.19509
   58   63   0.98079
   59   33   1.00000
   59   36   0.38268
   59   37   0.92388
   59   40   0.70711
   59   41   0.70711
   59   44   0.92388
   59   45   0.38268
   59   48   1.00000
   59   52   0.92388
   59   53  -0.38268
   59   56   0.70711
   59   57  -0.70711
   59   60   0.38268
   59   61  -0.92388
   59   64   1.00000
   60   34  -0.19509
   60   35  -0.98079
   60   38  -0.55557
   60   39  -0.83147
   60   42  -0.83147
   60   43  -0.55557
   60   46  -0.98079
   60   47  -0.19509
   60   50  -0.98079
   60   51   0.19509
   60   54  -0.83147
   60   55   0.55557
   60   58  -0.55557
   60   59   0.83147
   60   62  -0.19509
   60   63   0.98079
   61   33   1.00000
   61   36   0.92388
   61   37   0.38268
   61   40   0.70711
   61   41  -0.70711
   61   44  -0.38268
   61   45  -0.92388
   61   48  -1.00000
   61   52  -0.38268
   61   53   0.92388
   61   56   0.70711
   61   57   0.70711
   61   60   0.92388
   61   61  -0.38268
   61   64   1.00000
   62   34  -0.55557
   62   35  -0.83147
   62   38  -0.98079
   62   39   0.19509
   62   42  -0.19509
   62   43   0.98079
   62   46   0.83147
   62   47   0.55557
   62   50   0.83147
   62   51  -0.55557
   62   54  -0.19509
   62   55  -0.98079
   62   58  -0.98079
   62   59  -0.19509
   62   62  -0.55557
   62   63   0.83147
   63   33   1.00000
   63   36   0.92388
   63   37  -0.38268
   63   40  -0.70711
   63   41  -0.70711
   63   44  -0.38268
   63   45   0.92388
   63   48   1.00000
   63   52  -0.38268
   63   53  -0.92388
   63   56  -0.70711
   63   57   0.70711
   63   60   0.92388
   63   61   0.38268
   63   64   1.00000
   64   34  -0.83147
   64   35  -0.55557
   64   38  -0.19509
   64   39   0.98079
   64   42   0.98079
   64   43  -0.19509
   64   46  -0.55557
   64   47  -0.83147
   64   50  -0.55557
   64   51   0.83147
   64   54   0.98079
   64   55   0.19509
   64   58  -0.19509
   64   59  -0.98079
   64   62  -0.83147
   64   63   0.55557
   65   65   0.06250
   65   66   0.06250
   65   67  -0.06250
   65   68   0.05539
   65   69   0.02960
   65   70   0.05539
   65   71   0.02960
   65   74   0.05298
   65   75  -0.03540
   65   76   0.05298
   65   77  -0.03540
   65   80  -0.00616
   65   81  -0.06250
   65   82  -0.00616
   65   83  -0.06250
   65   86  -0.06250
   65   87  -0.02589
   65   88  -0.06250
   65   89  -0.02589
   65   92  -0.04855
   65   93   0.03984
   65   94  -0.04855
   65   95   0.03984
   65   98   0.01243
   65   99   0.06250
   65  100   0.01243
   65  101   0.06250
   65  104   0.06010
   65  105   0.01823
   65  106   0.06010
   65  107   0.01823
   65  110   0.06250
   65  111  -0.06250
   65  112   0.06250
   65  113  -0.06250
   65  116  -0.01823
   65  117  -0.06010
   65  118  -0.01823
   65  119  -0.06010
   65  122  -0.06250
   65  123  -0.01243
   65  124  -0.06250
   65  125  -0.01243
   65  128  -0.03984
   65  129   0.04855
   65  130  -0.03984
   65  131   0.04855
   65  134   0.02589
   65  135   0.06250
   65  136   0.02589
   65  137   0.06250
   65  140   0.06250
   65  141   0.00616
   65  142   0.06250
   65  143   0.00616
   65  146   0.03540
   65  147  -0.05298
   65  148   0.03540
   65  149  -0.05298
   65  152  -0.02960
   65  153  -0.05539
   65  154  -0.02960
   65  155  -0.05539
   65  158  -0.06250
   65  159  -0.06250
   66   65   1.00000
   66   66  -1.00000
   66   67   1.00000
   66   68   0.88619
   66   69   0.47368
   66   70  -0.88619
   66   71  -0.47368
   66   74   0.84776
   66   75  -0.56645
   66   76  -0.84776
   66   77   0.56645
   66   80  -0.09849
   66   81  -1.00000
   66   82   0.09849
   66   83   1.00000
   66   86  -1.00000
   66   87  -0.41421
   66   88   1.00000
   66   89   0.41421
   66   92  -0.77675
   66   93   0.63746
   66   94   0.77675
   66   95  -0.63746
   66   98   0.19891
   66   99   1.00000
   66  100  -0.19891
   66  101  -1.00000
   66  104   0.96157
   66  105   0.29169
   66  106  -0.96157
   66  107  -0.29169
   66  110   1.00000
   66  111  -1.00000
   66  112  -1.00000
   66  113   1.00000
   66  116  -0.29169
   66  117  -0.96157
   66  118   0.29169
   66  119   0.96157
   66  122  -1.00000
   66  123  -0.19891
   66  124   1.00000
   66  125   0.19891
   66  128  -0.63746
   66  129   0.77675
   66  130   0.63746
   66  131  -0.77675
   66  134   0.41421
   66  135   1.00000
   66  136  -0.41421
   66  137  -1.00000
   66  140   1.00000
   66  141   0.09849
   66  142  -1.00000
   66  143  -0.09849
   66  146   0.56645
   66  147  -0.84776
   66  148  -0.56645
   66  149   0.84776
   66  152  -0.47368
   66  153  -0.88619
   66  154   0.47368
   66  155   0.88619
   66  158   1.00000
   66  159  -1.00000
   67   65   0.06250
   67   66   0.06250
   67   67  -0.06250
   67   68   0.06250
   67   69   0.00616
   67   70   0.06250
   67   71   0.00616
   67   74   0.01243
   67   75  -0.06250
   67   76   0.01243
   67   77  -0.06250
   67   80  -0.06010
   67   81  -0.01823
   67   82  -0.06010
   67   83  -0.01823
   67   86  -0.02589
   67   87   0.06250
   67   88  -0.02589
   67   89   0.06250
   67   92   0.05539
   67   93   0.02960
   67   94   0.05539
   67   95   0.02960
   67   98   0.03540
   67   99  -0.05298
   67  100   0.03540
   67  101  -0.05298
   67  104  -0.04855
   67  105  -0.03984
   67  106  -0.04855
   67  107  -0.03984
   67  110  -0.06250
   67  111   0.06250
   67  112  -0.06250
   67  113   0.06250
   67  116   0.03984
   67  117   0.04855
   67  118   0.03984
   67  119   0.04855
   67  122   0.05298
   67  123  -0.03540
   67  124   0.05298
   67  125  -0.03540
   67  128  -0.02960
   67  129  -0.05539
   67  130  -0.02960
   67  131  -0.05539
   67  134  -0.06250
   67  135   0.02589
   67  136  -0.06250
   67  137   0.02589
   67  140   0.01823
   67  141   0.06010
   67  142   0.01823
   67  143   0.06010
   67  146   0.06250
   67  147  -0.01243
   67  148   0.06250
   67  149  -0.01243
   67  152  -0.00616
   67  153  -0.06250
   67  154  -0.00616
   67  155  -0.06250
   67  158  -0.06250
   67  159  -0.06250
   68   65   1.00000
   68   66  -1.00000
   68   67   1.00000
   68   68   1.00000
   68   69   0.09849
   68   70  -1.00000
   68   71  -0.09849
   68   74   0.19891
   68   75  -1.00000
   68   76  -0.19891
   68   77   1.00000
   68   80  -0.96157
   68   81  -0.29169
   68   82   0.96157
   68   83   0.29169
   68   86  -0.41421
   68   87   1.00000
   68   88   0.41421
   68   89  -1.00000
   68   92   0.88619
   68   93   0.47368
   68   94  -0.88619
   68   95  -0.47368
   68   98   0.56645
   68   99  -0.84776
   68  100  -0.56645
   68  101   0.84776
   68  104  -0.77675
   68  105  -0.63746
   68  106   0.77675
   68  107   0.63746
   68  110  -1.00000
   68  111   1.00000
   68  112   1.00000
   68  113  -1.00000
   68  116   0.63746
   68  117   0.77675
   68  118  -0.63746
   68  119  -0.77675
   68  122   0.84776
   68  123  -0.56645
   68  124  -0.84776
   68  125   0.56645
   68  128  -0.47368
   68  129  -0.88619
   68  130   0.47368
   68  131   0.88619
   68  134  -1.00000
   68  135   0.41421
   68  136   1.00000
   68  137  -0.41421
   68  140   0.29169
   68  141   0.96157
   68  142  -0.29169
   68  143  -0.96157
   68  146   1.00000
   68  147  -0.19891
   68  148  -1.00000
   68  149   0.19891
   68  152  -0.09849
   68  153  -1.00000
   68  154   0.09849
   68  155   1.00000
   68  158   1.00000
   68  159  -1.00000
   69   65   0.06250
   69   66   0.06250
   69   67  -0.06250
   69   68   0.06010
   69   69  -0.01823
   69   70   0.06010
   69   71  -0.01823
   69   74  -0.03540
   69   75  -0.05298
   69   76  -0.03540
   69   77  -0.05298
   69   80  -0.03984
   69   81   0.04855
   69   82  -0.03984
   69   83   0.04855
   69   86   0.06250
   69   87   0.02589
   69   88   0.06250
   69   89   0.02589
   69   92   0.00616
   69   93  -0.06250
   69   94   0.00616
   69   95  -0.06250
   69   98  -0.06250
   69   99   0.01243
   69  100  -0.06250
   69  101   0.01243
   69  104   0.02960
   69  105   0.05539
   69  106   0.02960
   69  107   0.05539
   69  110   0.06250
   69  111  -0.06250
   69  112   0.06250
   69  113  -0.06250
   69  116  -0.05539
   69  117  -0.02960
   69  118  -0.05539
   69  119  -0.02960
   69  122  -0.01243
   69  123   0.06250
   69  124  -0.01243
   69  125   0.06250
   69  128   0.06250
   69  129  -0.00616
   69  130   0.06250
   69  131  -0.00616
   69  134  -0.02589
   69  135  -0.06250
   69  136  -0.02589
   69  137  -0.06250
   69  140  -0.04855
   69  141   0.03984
   69  142  -0.04855
   69  143   0.03984
   69  146   0.05298
   69  147   0.03540
   69  148   0.05298
   69  149   0.03540
   69  152   0.01823
   69  153  -0.06010
   69  154   0.01823
   69  155  -0.06010
   69  158  -0.06250
   69  159  -0.06250
   70   65   1.00000
   70   66  -1.00000
   70   67   1.00000
   70   68   0.96157
   70   69  -0.29169
   70   70  -0.96157
   70   71   0.29169
   70   74  -0.56645
   70   75  -0.84776
   70   76   0.56645
   70   77   0.84776
   70   80  -0.63746
   70   81   0.77675
   70   82   0.63746
   70   83  -0.77675
   70   86   1.00000
   70   87   0.41421
   70   88  -1.00000
   70   89  -0.41421
   70   92   0.09849
   70   93  -1.00000
   70   94  -0.09849
   70   95   1.00000
   70   98  -1.00000
   70   99   0.19891
   70  100   1.00000
   70  101  -0.19891
   70  104   0.47368
   70  105   0.88619
   70  106  -0.47368
   70  107  -0.88619
   70  110   1.00000
   70  111  -1.00000
   70  112  -1.00000
   70  113   1.00000
   70  116  -0.88619
   70  117  -0.47368
   70  118   0.88619
   70  119   0.47368
   70  122  -0.19891
   70  123   1.00000
   70  124   0.19891
   70  125  -1.00000
   70  128   1.00000
   70  129  -0.09849
   70  130  -1.00000
   70  131   0.09849
   70  134  -0.41421
   70  135  -1.00000
   70  136   0.41421
   70  137   1.00000
   70  140  -0.77675
   70  141   0.63746
   70  142   0.77675
   70  143  -0.63746
   70  146   0.84776
   70  147   0.56645
   70  148  -0.84776
   70  149  -0.56645
   70  152   0.29169
   70  153  -0.96157
   70  154  -0.29169
   70  155   0.96157
   70  158   1.00000
   70  159  -1.00000
   71   65   0.06250
   71   66   0.06250
   71   67  -0.06250
   71   68   0.04855
   71   69  -0.03984
   71   70   0.04855
   71   71  -0.03984
   71   74  -0.06250
   71   75  -0.01243
   71   76  -0.06250
   71   77  -0.01243
   71   80   0.02960
   71   81   0.05539
   71   82   0.02960
   71   83   0.05539
   71   86   0.02589
   71   87  -0.06250
   71   88   0.02589
   71   89  -0.06250
   71   92  -0.06010
   71   93   0.01823
   71   94  -0.06010
   71   95   0.01823
   71   98   0.05298
   71   99   0.03540
   71  100   0.05298
   71  101   0.03540
   71  104  -0.00616
   71  105  -0.06250
   71  106  -0.00616
   71  107  -0.06250
   71  110  -0.06250
   71  111   0.06250
   71  112  -0.06250
   71  113   0.06250
   71  116   0.06250
   71  117   0.00616
   71  118   0.06250
   71  119   0.00616
   71  122  -0.03540
   71  123  -0.05298
   71  124  -0.03540
   71  125  -0.05298
   71  128  -0.01823
   71  129   0.06010
   71  130  -0.01823
   71  131   0.06010
   71  134   0.06250
   71  135  -0.02589
   71  136   0.06250
   71  137  -0.02589
   71  140  -0.05539
   71  141  -0.02960
   71  142  -0.05539
   71  143  -0.02960
   71  146   0.01243
   71  147   0.06250
   71  148   0.01243
   71  149   0.06250
   71  152   0.03984
   71  153  -0.04855
   71  154   0.03984
   71  155  -0.04855
   71  158  -0.06250
   71  159  -0.06250
   72   65   1.00000
   72   66  -1.00000
   72   67   1.00000
   72   68   0.77675
   72   69  -0.63746
   72   70  -0.77675
   72   71   0.63746
   72   74  -1.00000
   72   75  -0.19891
   72   76   1.00000
   72   77   0.19891
   72   80   0.47368
   72   81   0.88619
   72   82  -0.47368
   72   83  -0.88619
   72   86   0.41421
   72   87  -1.00000
   72   88  -0.41421
   72   89   1.00000
   72   92  -0.96157
   72   93   0.29169
   72   94   0.96157
   72   95  -0.29169
   72   98   0.84776
   72   99   0.56645
   72  100  -0.84776
   72  101  -0.56645
   72  104  -0.09849
   72  105  -1.00000
   72  106   0.09849
   72  107   1.00000
   72  110  -1.00000
   72  111   1.00000
   72  112   1.00000
   72  113  -1.00000
   72  116   1.00000
   72  117   0.09849
   72  118  -1.00000
   72  119  -0.09849
   72  122  -0.56645
   72  123  -0.84776
   72  124   0.56645
   72  125   0.84776
   72  128  -0.29169
   72  129   0.96157
   72  130   0.29169
   72  131  -0.96157
   72  134   1.00000
   72  135  -0.41421
   72  136  -1.00000
   72  137   0.41421
   72  140  -0.88619
   72  141  -0.47368
   72  142   0.88619
   72  143   0.47368
   72  146   0.19891
   72  147   1.00000
   72  148  -0.19891
   72  149  -1.00000
   72  152   0.63746
   72  153  -0.77675
   72  154  -0.63746
   72  155   0.77675
   72  158   1.00000
   72  159  -1.00000
   73   65   0.06250
   73   66   0.06250
   73   67  -0.06250
   73   68   0.02960
   73   69  -0.05539
   73   70   0.02960
   73   71  -0.05539
   73   74  -0.05298
   73   75   0.03540
   73   76  -0.05298
   73   77   0.03540
   73   80   0.06250
   73   81  -0.00616
   73   82   0.06250
   73   83  -0.00616
   73   86  -0.06250
   73   87  -0.02589
   73   88  -0.06250
   73   89  -0.02589
   73   92   0.03984
   73   93   0.04855
   73   94   0.03984
   73   95   0.04855
   73   98  -0.01243
   73   99  -0.06250
   73  100  -0.01243
   73  101  -0.06250
   73  104  -0.01823
   73  105   0.06010
   73  106  -0.01823
   73  107   0.06010
   73  110   0.06250
   73  111  -0.06250
   73  112   0.06250
   73  113  -0.06250
   73  116  -0.06010
   73  117   0.01823
   73  118  -0.06010
   73  119   0.01823
   73  122   0.06250
   73  123   0.01243
   73  124   0.06250
   73  125   0.01243
   73  128  -0.04855
   73  129  -0.03984
   73  130  -0.04855
   73  131  -0.03984
   73  134   0.02589
   73  135   0.06250
   73  136   0.02589
   73  137   0.06250
   73  140   0.00616
   73  141  -0.06250
   73  142   0.00616
   73  143  -0.06250
   73  146  -0.03540
   73  147   0.05298
   73  148  -0.03540
   73  149   0.05298
   73  152   0.05539
   73  153  -0.02960
   73  154   0.05539
   73  155  -0.02960
   73  158  -0.06250
   73  159  -0.06250
   74   65   1.00000
   74   66  -1.00000
   74   67   1.00000
   74   68   0.47368
   74   69  -0.88619
   74   70  -0.47368
   74   71   0.88619
   74   74  -0.84776
   74   75   0.56645
   74   76   0.84776
   74   77  -0.56645
   74   80   1.00000
   74   81  -0.09849
   74   82  -1.00000
   74   83   0.09849
   74   86  -1.00000
   74   87  -0.41421
   74   88   1.00000
   74   89   0.41421
   74   92   0.63746
   74   93   0.77675
   74   94  -0.63746
   74   95  -0.77675
   74   98  -0.19891
   74   99  -1.00000
   74  100   0.19891
   74  101   1.00000
   74  104  -0.29169
   74  105   0.96157
   74  106   0.29169
   74  107  -0.96157
   74  110   1.00000
   74  111  -1.00000
   74  112  -1.00000
   74  113   1.00000
   74  116  -0.96157
   74  117   0.29169
   74  118   0.96157
   74  119  -0.29169
   74  122   1.00000
   74  123   0.19891
   74  124  -1.00000
   74  125  -0.19891
   74  128  -0.77675
   74  129  -0.63746
   74  130   0.77675
   74  131   0.63746
   74  134   0.41421
   74  135   1.00000
   74  136  -0.41421
   74  137  -1.00000
   74  140   0.09849
   74  141  -1.00000
   74  142  -0.09849
   74  143   1.00000
   74  146  -0.56645
   74  147   0.84776
   74  148   0.56645
   74  149  -0.84776
   74  152   0.88619
   74  153  -0.47368
   74  154  -0.88619
   74  155   0.47368
   74  158   1.00000
   74  159  -1.00000
   75   65   0.06250
   75   66   0.06250
   75   67  -0.06250
   75   68   0.00616
   75   69  -0.06250
   75   70   0.00616
   75   71  -0.06250
   75   74  -0.01243
   75   75   0.06250
   75   76  -0.01243
   75   77   0.06250
   75   80   0.01823
   75   81  -0.06010
   75   82   0.01823
   75   83  -0.06010
   75   86  -0.02589
   75   87   0.06250
   75   88  -0.02589
   75   89   0.06250
   75   92   0.02960
   75   93  -0.05539
   75   94   0.02960
   75   95  -0.05539
   75   98  -0.03540
   75   99   0.05298
   75  100  -0.03540
   75  101   0.05298
   75  104   0.03984
   75  105  -0.04855
   75  106   0.03984
   75  107  -0.04855
   75  110  -0.06250
   75  111   0.06250
   75  112  -0.06250
   75  113   0.06250
   75  116   0.04855
   75  117  -0.03984
   75  118   0.04855
   75  119  -0.03984
   75  122  -0.05298
   75  123   0.03540
   75  124  -0.05298
   75  125   0.03540
   75  128   0.05539
   75  129  -0.02960
   75  130   0.05539
   75  131  -0.02960
   75  134  -0.06250
   75  135   0.02589
   75  136  -0.06250
   75  137   0.02589
   75  140   0.06010
   75  141  -0.01823
   75  142   0.06010
   75  143  -0.01823
   75  146  -0.06250
   75  147   0.01243
   75  148  -0.06250
   75  149   0.01243
   75  152   0.06250
   75  153  -0.00616
   75  154   0.06250
   75  155  -0.00616
   75  158  -0.06250
   75  159  -0.06250
   76   65   1.00000
   76   66  -1.00000
   76   67   1.00000
   76   68   0.09849
   76   69  -1.00000
   76   70  -0.09849
   76   71   1.00000
   76   74  -0.19891
   76   75   1.00000
   76   76   0.19891
   76   77  -1.00000
   76   80   0.29169
   76   81  -0.96157
   76   82  -0.29169
   76   83   0.96157
   76   86  -0.41421
   76   87   1.00000
   76   88   0.41421
   76   89  -1.00000
   76   92   0.47368
   76   93  -0.88619
   76   94  -0.47368
   76   95   0.88619
   76   98  -0.56645
   76   99   0.84776
   76  100   0.56645
   76  101  -0.84776
   76  104   0.63746
   76  105  -0.77675
   76  106  -0.63746
   76  107   0.77675
   76  110  -1.00000
   76  111   1.00000
   76  112   1.00000
   76  113  -1.00000
   76  116   0.77675
   76  117  -0.63746
   76  118  -0.77675
   76  119   0.63746
   76  122  -0.84776
   76  123   0.56645
   76  124   0.84776
   76  125  -0.56645
   76  128   0.88619
   76  129  -0.47368
   76  130  -0.88619
   76  131   0.47368
   76  134  -1.00000
   76  135   0.41421
   76  136   1.00000
   76  137  -0.41421
   76  140   0.96157
   76  141  -0.29169
   76  142  -0.96157
   76  143   0.29169
   76  146  -1.00000
   76  147   0.19891
   76  148   1.00000
   76  149  -0.19891
   76  152   1.00000
   76  153  -0.09849
   76  154  -1.00000
   76  155   0.09849
   76  158   1.00000
   76  159  -1.00000
   77   65   0.06250
   77   66   0.06250
   77   67  -0.06250
   77   68  -0.01823
   77   69  -0.06010
   77   70  -0.01823
   77   71  -0.06010
   77   74   0.03540
   77   75   0.05298
   77   76   0.03540
   77   77   0.05298
   77   80  -0.04855
   77   81  -0.03984
   77   82  -0.04855
   77   83  -0.03984
   77   86   0.06250
   77   87   0.02589
   77   88   0.06250
   77   89   0.02589
   77   92  -0.06250
   77   93  -0.00616
   77   94  -0.06250
   77   95  -0.00616
   77   98   0.06250
   77   99  -0.01243
   77  100   0.06250
   77  101  -0.01243
   77  104  -0.05539
   77  105   0.02960
   77  106  -0.05539
   77  107   0.02960
   77  110   0.06250
   77  111  -0.06250
   77  112   0.06250
   77  113  -0.06250
   77  116  -0.02960
   77  117   0.05539
   77  118  -0.02960
   77  119   0.05539
   77  122   0.01243
   77  123  -0.06250
   77  124   0.01243
   77  125  -0.06250
   77  128   0.00616
   77  129   0.06250
   77  130   0.00616
   77  131   0.06250
   77  134  -0.02589
   77  135  -0.06250
   77  136  -0.02589
   77  137  -0.06250
   77  140   0.03984
   77  141   0.04855
   77  142   0.03984
   77  143   0.04855
   77  146  -0.05298
   77  147  -0.03540
   77  148  -0.05298
   77  149  -0.03540
   77  152   0.06010
   77  153   0.01823
   77  154   0.06010
   77  155   0.01823
   77  158  -0.06250
   77  159  -0.06250
   78   65   1.00000
   78   66  -1.00000
   78   67   1.00000
   78   68  -0.29169
   78   69  -0.96157
   78   70   0.29169
   78   71   0.96157
   78   74   0.56645
   78   75   0.84776
   78   76  -0.56645
   78   77  -0.84776
   78   80  -0.77675
   78   81  -0.63746
   78   82   0.77675
   78   83   0.63746
   78   86   1.00000
   78   87   0.41421
   78   88  -1.00000
   78   89  -0.41421
   78   92  -1.00000
   78   93  -0.09849
   78   94   1.00000
   78   95   0.09849
   78   98   1.00000
   78   99  -0.19891
   78  100  -1.00000
   78  101   0.19891
   78  104  -0.88619
   78  105   0.47368
   78  106   0.88619
   78  107  -0.47368
   78  110   1.00000
   78  111  -1.00000
   78  112  -1.00000
   78  113   1.00000
   78  116  -0.47368
   78  117   0.88619
   78  118   0.47368
   78  119  -0.88619
   78  122   0.19891
   78  123  -1.00000
   78  124  -0.19891
   78  125   1.00000
   78  128   0.09849
   78  129   1.00000
   78  130  -0.09849
   78  131  -1.00000
   78  134  -0.41421
   78  135  -1.00000
   78  136   0.41421
   78  137   1.00000
   78  140   0.63746
   78  141   0.77675
   78  142  -0.63746
   78  143  -0.77675
   78  146  -0.84776
   78  147  -0.56645
   78  148   0.84776
   78  149   0.56645
   78  152   0.96157
   78  153   0.29169
   78  154  -0.96157
   78  155  -0.29169
   78  158   1.00000
   78  159  -1.00000
   79   65   0.06250
   79   66   0.06250
   79   67  -0.06250
   79   68  -0.03984
   79   69  -0.04855
   79   70  -0.03984
   79   71  -0.04855
   79   74   0.06250
   79   75   0.01243
   79   76   0.06250
   79   77   0.01243
   79   80  -0.05539
   79   81   0.02960
   79   82  -0.05539
   79   83   0.02960
   79   86   0.02589
   79   87  -0.06250
   79   88   0.02589
   79   89  -0.06250
   79   92   0.01823
   79   93   0.06010
   79   94   0.01823
   79   95   0.06010
   79   98  -0.05298
   79   99  -0.03540
   79  100  -0.05298
   79  101  -0.03540
   79  104   0.06250
   79  105  -0.00616
   79  106   0.06250
   79  107  -0.00616
   79  110  -0.06250
   79  111   0.06250
   79  112  -0.06250
   79  113   0.06250
   79  116   0.00616
   79  117  -0.06250
   79  118   0.00616
   79  119  -0.06250
   79  122   0.03540
   79  123   0.05298
   79  124   0.03540
   79  125   0.05298
   79  128  -0.06010
   79  129  -0.01823
   79  130  -0.06010
   79  131  -0.01823
   79  134   0.06250
   79  135  -0.02589
   79  136   0.06250
   79  137  -0.02589
   79  140  -0.02960
   79  141   0.05539
   79  142  -0.02960
   79  143   0.05539
   79  146  -0.01243
   79  147  -0.06250
   79  148  -0.01243
   79  149  -0.06250
   79  152   0.04855
   79  153   0.03984
   79  154   0.04855
   79  155   0.03984
   79  158  -0.06250
   79  159  -0.06250
   80   65   1.00000
   80   66  -1.00000
   80   67   1.00000
   80   68  -0.63746
   80   69  -0.77675
   80   70   0.63746
   80   71   0.77675
   80   74   1.00000
   80   75   0.19891
   80   76  -1.00000
   80   77  -0.19891
   80   80  -0.88619
   80   81   0.47368
   80   82   0.88619
   80   83  -0.47368
   80   86   0.41421
   80   87  -1.00000
   80   88  -0.41421
   80   89   1.00000
   80   92   0.29169
   80   93   0.96157
   80   94  -0.29169
   80   95  -0.96157
   80   98  -0.84776
   80   99  -0.56645
   80  100   0.84776
   80  101   0.56645
   80  104   1.00000
   80  105  -0.09849
   80  106  -1.00000
   80  107   0.09849
   80  110  -1.00000
   80  111   1.00000
   80  112   1.00000
   80  113  -1.00000
   80  116   0.09849
   80  117  -1.00000
   80  118  -0.09849
   80  119   1.00000
   80  122   0.56645
   80  123   0.84776
   80  124  -0.56645
   80  125  -0.84776
   80  128  -0.96157
   80  129  -0.29169
   80  130   0.96157
   80  131   0.29169
   80  134   1.00000
   80  135  -0.41421
   80  136  -1.00000
   80  137   0.41421
   80  140  -0.47368
   80  141   0.88619
   80  142   0.47368
   80  143  -0.88619
   80  146  -0.19891
   80  147  -1.00000
   80  148   0.19891
   80  149   1.00000
   80  152   0.77675
   80  153   0.63746
   80  154  -0.77675
   80  155  -0.63746
   80  158   1.00000
   80  159  -1.00000
   81   65   0.06250
   81   66   0.06250
   81   67  -0.06250
   81   68  -0.05539
   81   69  -0.02960
   81   70  -0.05539
   81   71  -0.02960
   81   74   0.05298
   81   75  -0.03540
   81   76   0.05298
   81   77  -0.03540
   81   80   0.00616
   81   81   0.06250
   81   82   0.00616
   81   83   0.06250
   81   86  -0.06250
   81   87  -0.02589
   81   88  -0.06250
   81   89  -0.02589
   81   92   0.04855
   81   93  -0.03984
   81   94   0.04855
   81   95  -0.03984
   81   98   0.01243
   81   99   0.06250
   81  100   0.01243
   81  101   0.06250
   81  104  -0.06010
   81  105  -0.01823
   81  106  -0.06010
   81  107  -0.01823
   81  110   0.06250
   81  111  -0.06250
   81  112   0.06250
   81  113  -0.06250
   81  116   0.01823
   81  117   0.06010
   81  118   0.01823
   81  119   0.06010
   81  122  -0.06250
   81  123  -0.01243
   81  124  -0.06250
   81  125  -0.01243
   81  128   0.03984
   81  129  -0.04855
   81  130   0.03984
   81  131  -0.04855
   81  134   0.02589
   81  135   0.06250
   81  136   0.02589
   81  137   0.06250
   81  140  -0.06250
   81  141  -0.00616
   81  142  -0.06250
   81  143  -0.00616
   81  146   0.03540
   81  147  -0.05298
   81  148   0.03540
   81  149  -0.05298
   81  152   0.02960
   81  153   0.05539
   81  154   0.02960
   81  155   0.05539
   81  158  -0.06250
   81  159  -0.06250
   82   65   1.00000
   82   66  -1.00000
   82   67   1.00000
   82   68  -0.88619
   82   69  -0.47368
   82   70   0.88619
   82   71   0.47368
   82   74   0.84776
   82   75  -0.56645
   82   76  -0.84776
   82   77   0.56645
   82   80   0.09849
   82   81   1.00000
   82   82  -0.09849
   82   83  -1.00000
   82   86  -1.00000
   82   87  -0.41421
   82   88   1.00000
   82   89   0.41421
   82   92   0.77675
   82   93  -0.63746
   82   94  -0.77675
   82   95   0.63746
   82   98   0.19891
   82   99   1.00000
   82  100  -0.19891
   82  101  -1.00000
   82  104  -0.96157
   82  105  -0.29169
   82  106   0.96157
   82  107   0.29169
   82  110   1.00000
   82  111  -1.00000
   82  112  -1.00000
   82  113   1.00000
   82  116   0.29169
   82  117   0.96157
   82  118  -0.29169
   82  119  -0.96157
   82  122  -1.00000
   82  123  -0.19891
   82  124   1.00000
   82  125   0.19891
   82  128   0.63746
   82  129  -0.77675
   82  130  -0.63746
   82  131   0.77675
   82  134   0.41421
   82  135   1.00000
   82  136  -0.41421
   82  137  -1.00000
   82  140  -1.00000
   82  141  -0.09849
   82  142   1.00000
   82  143   0.09849
   82  146   0.56645
   82  147  -0.84776
   82  148  -0.56645
   82  149   0.84776
   82  152   0.47368
   82  153   0.88619
   82  154  -0.47368
   82  155  -0.88619
   82  158   1.00000
   82  159  -1.00000
   83   65   0.06250
   83   66   0.06250
   83   67  -0.06250
   83   68  -0.06250
   83   69  -0.00616
   83   70  -0.06250
   83   71  -0.00616
   83   74   0.01243
   83   75  -0.06250
   83   76   0.01243
   83   77  -0.06250
   83   80   0.06010
   83   81   0.01823
   83   82   0.06010
   83   83   0.01823
   83   86  -0.02589
   83   87   0.06250
   83   88  -0.02589
   83   89   0.06250
   83   92  -0.05539
   83   93  -0.02960
   83   94  -0.05539
   83   95  -0.02960
   83   98   0.03540
   83   99  -0.05298
   83  100   0.03540
   83  101  -0.05298
   83  104   0.04855
   83  105   0.03984
   83  106   0.04855
   83  107   0.03984
   83  110  -0.06250
   83  111   0.06250
   83  112  -0.06250
   83  113   0.06250
   83  116  -0.03984
   83  117  -0.04855
   83  118  -0.03984
   83  119  -0.04855
   83  122   0.05298
   83  123  -0.03540
   83  124   0.05298
   83  125  -0.03540
   83  128   0.02960
   83  129   0.05539
   83  130   0.02960
   83  131   0.05539
   83  134  -0.06250
   83  135   0.02589
   83  136  -0.06250
   83  137   0.02589
   83  140  -0.01823
   83  141  -0.06010
   83  142  -0.01823
   83  143  -0.06010
   83  146   0.06250
   83  147  -0.01243
   83  148   0.06250
   83  149  -0.01243
   83  152   0.00616
   83  153   0.06250
   83  154   0.00616
   83  155   0.06250
   83  158  -0.06250
   83  159  -0.06250
   84   65   1.00000
   84   66  -1.00000
   84   67   1.00000
   84   68  -1.00000
   84   69  -0.09849
   84   70   1.00000
   84   71   0.09849
   84   74   0.19891
   84   75  -1.00000
   84   76  -0.19891
   84   77   1.00000
   84   80   0.96157
   84   81   0.29169
   84   82  -0.96157
   84   83  -0.29169
   84   86  -0.41421
   84   87   1.00000
   84   88   0.41421
   84   89  -1.00000
   84   92  -0.88619
   84   93  -0.47368
   84   94   0.88619
   84   95   0.47368
   84   98   0.56645
   84   99  -0.84776
   84  100  -0.56645
   84  101   0.84776
   84  104   0.77675
   84  105   0.63746
   84  106  -0.77675
   84  107  -0.63746
   84  110  -1.00000
   84  111   1.00000
   84  112   1.00000
   84  113  -1.00000
   84  116  -0.63746
   84  117  -0.77675
   84  118   0.63746
   84  119   0.77675
   84  122   0.84776
   84  123  -0.56645
   84  124  -0.84776
   84  125   0.56645
   84  128   0.47368
   84  129   0.88619
   84  130  -0.47368
   84  131  -0.88619
   84  134  -1.00000
   84  135   0.41421
   84  136   1.00000
   84  137  -0.41421
   84  140  -0.29169
   84  141  -0.96157
   84  142   0.29169
   84  143   0.96157
   84  146   1.00000
   84  147  -0.19891
   84  148  -1.00000
   84  149   0.19891
   84  152   0.09849
   84  153   1.00000
   84  154  -0.09849
   84  155  -1.00000
   84  158   1.00000
   84  159  -1.00000
   85   65   0.06250
   85   66   0.06250
   85   67  -0.06250
   85   68  -0.06010
   85   69   0.01823
   85   70  -0.06010
   85   71   0.01823
   85   74  -0.03540
   85   75  -0.05298
   85   76  -0.03540
   85   77  -0.05298
   85   80   0.03984
   85   81  -0.04855
   85   82   0.03984
   85   83  -0.04855
   85   86   0.06250
   85   87   0.02589
   85   88   0.06250
   85   89   0.02589
   85   92  -0.00616
   85   93   0.06250
   85   94  -0.00616
   85   95   0.06250
   85   98  -0.06250
   85   99   0.01243
   85  100  -0.06250
   85  101   0.01243
   85  104  -0.02960
   85  105  -0.05539
   85  106  -0.02960
   85  107  -0.05539
   85  110   0.06250
   85  111  -0.06250
   85  112   0.06250
   85  113  -0.06250
   85  116   0.05539
   85  117   0.02960
   85  118   0.05539
   85  119   0.02960
   85  122  -0.01243
   85  123   0.06250
   85  124  -0.01243
   85  125   0.06250
   85  128  -0.06250
   85  129   0.00616
   85  130  -0.06250
   85  131   0.00616
   85  134  -0.02589
   85  135  -0.06250
   85  136  -0.02589
   85  137  -0.06250
   85  140   0.04855
   85  141  -0.03984
   85  142   0.04855
   85  143  -0.03984
   85  146   0.05298
   85  147   0.03540
   85  148   0.05298
   85  149   0.03540
   85  152  -0.01823
   85  153   0.06010
   85  154  -0.01823
   85  155   0.06010
   85  158  -0.06250
   85  159  -0.06250
   86   65   1.00000
   86   66  -1.00000
   86   67   1.00000
   86   68  -0.96157
   86   69   0.29169
   86   70   0.96157
   86   71  -0.29169
   86   74  -0.56645
   86   75  -0.84776
   86   76   0.56645
   86   77   0.84776
   86   80   0.63746
   86   81  -0.77675
   86   82  -0.63746
   86   83   0.77675
   86   86   1.00000
   86   87   0.41421
   86   88  -1.00000
   86   89  -0.41421
   86   92  -0.09849
   86   93   1.00000
   86   94   0.09849
   86   95  -1.00000
   86   98  -1.00000
   86   99   0.19891
   86  100   1.00000
   86  101  -0.19891
   86  104  -0.47368
   86  105  -0.88619
   86  106   0.47368
   86  107   0.88619
   86  110   1.00000
   86  111  -1.00000
   86  112  -1.00000
   86  113   1.00000
   86  116   0.88619
   86  117   0.47368
   86  118  -0.88619
   86  119  -0.47368
   86  122  -0.19891
   86  123   1.00000
   86  124   0.19891
   86  125  -1.00000
   86  128  -1.00000
   86  129   0.09849
   86  130   1.00000
   86  131  -0.09849
   86  134  -0.41421
   86  135  -1.00000
   86  136   0.41421
   86  137   1.00000
   86  140   0.77675
   86  141  -0.63746
   86  142  -0.77675
   86  143   0.63746
   86  146   0.84776
   86  147   0.56645
   86  148  -0.84776
   86  149  -0.56645
   86  152  -0.29169
   86  153   0.96157
   86  154   0.29169
   86  155  -0.96157
   86  158   1.00000
   86  159  -1.00000
   87   65   0.06250
   87   66   0.06250
   87   67  -0.06250
   87   68  -0.04855
   87   69   0.03984
   87   70  -0.04855
   87   71   0.03984
   87   74  -0.06250
   87   75  -0.01243
   87   76  -0.06250
   87   77  -0.01243
   87   80  -0.02960
   87   81  -0.05539
   87   82  -0.02960
   87   83  -0.05539
   87   86   0.02589
   87   87  -0.06250
   87   88   0.02589
   87   89  -0.06250
   87   92   0.06010
   87   93  -0.01823
   87   94   0.06010
   87   95  -0.01823
   87   98   0.05298
   87   99   0.03540
   87  100   0.05298
   87  101   0.03540
   87  104   0.00616
   87  105   0.06250
   87  106   0.00616
   87  107   0.06250
   87  110  -0.06250
   87  111   0.06250
   87  112  -0.06250
   87  113   0.06250
   87  116  -0.06250
   87  117  -0.00616
   87  118  -0.06250
   87  119  -0.00616
   87  122  -0.03540
   87  123  -0.05298
   87  124  -0.03540
   87  125  -0.05298
   87  128   0.01823
   87  129  -0.06010
   87  130   0.01823
   87  131  -0.06010
   87  134   0.06250
   87  135  -0.02589
   87  136   0.06250
   87  137  -0.02589
   87  140   0.05539
   87  141   0.02960
   87  142   0.05539
   87  143   0.02960
   87  146   0.01243
   87  147   0.06250
   87  148   0.01243
   87  149   0.06250
   87  152  -0.03984
   87  153   0.04855
   87  154  -0.03984
   87  155   0.04855
   87  158  -0.06250
   87  159  -0.06250
   88   65   1.00000
   88   66  -1.00000
   88   67   1.00000
   88   68  -0.77675
   88   69   0.63746
   88   70   0.77675
   88   71  -0.63746
   88   74  -1.00000
   88   75  -0.19891
   88   76   1.00000
   88   77   0.19891
   88   80  -0.47368
   88   81  -0.88619
   88   82   0.47368
   88   83   0.88619
   88   86   0.41421
   88   87  -1.00000
   88   88  -0.41421
   88   89   1.00000
   88   92   0.96157
   88   93  -0.29169
   88   94  -0.96157
   88   95   0.29169
   88   98   0.84776
   88   99   0.56645
   88  100  -0.84776
   88  101  -0.56645
   88  104   0.09849
   88  105   1.00000
   88  106  -0.09849
   88  107  -1.00000
   88  110  -1.00000
   88  111   1.00000
   88  112   1.00000
   88  113  -1.00000
   88  116  -1.00000
   88  117  -0.09849
   88  118   1.00000
   88  119   0.09849
   88  122  -0.56645
   88  123  -0.84776
   88  124   0.56645
   88  125   0.84776
   88  128   0.29169
   88  129  -0.96157
   88  130  -0.29169
   88  131   0.96157
   88  134   1.00000
   88  135  -0.41421
   88  136  -1.00000
   88  137   0.41421
   88  140   0.88619
   88  141   0.47368
   88  142  -0.88619
   88  143  -0.47368
   88  146   0.19891
   88  147   1.00000
   88  148  -0.19891
   88  149  -1.00000
   88  152  -0.63746
   88  153   0.77675
   88  154   0.63746
   88  155  -0.77675
   88  158   1.00000
   88  159  -1.00000
   89   65   0.06250
   89   66   0.06250
   89   67  -0.06250
   89   68  -0.02960
   89   69   0.05539
   89   70  -0.02960
   89   71   0.05539
   89   74  -0.05298
   89   75   0.03540
   89   76  -0.05298
   89   77   0.03540
   89   80  -0.06250
   89   81   0.00616
   89   82  -0.06250
   89   83   0.00616
   89   86  -0.06250
   89   87  -0.02589
   89   88  -0.06250
   89   89  -0.02589
   89   92  -0.03984
   89   93  -0.04855
   89   94  -0.03984
   89   95  -0.04855
   89   98  -0.01243
   89   99  -0.06250
   89  100  -0.01243
   89  101  -0.06250
   89  104   0.01823
   89  105  -0.06010
   89  106   0.01823
   89  107  -0.06010
   89  110   0.06250
   89  111  -0.06250
   89  112   0.06250
   89  113  -0.06250
   89  116   0.06010
   89  117  -0.01823
   89  118   0.06010
   89  119  -0.01823
   89  122   0.06250
   89  123   0.01243
   89  124   0.06250
   89  125   0.01243
   89  128   0.04855
   89  129   0.03984
   89  130   0.04855
   89  131   0.03984
   89  134   0.02589
   89  135   0.06250
   89  136   0.02589
   89  137   0.06250
   89  140  -0.00616
   89  141   0.06250
   89  142  -0.00616
   89  143   0.06250
   89  146  -0.03540
   89  147   0.05298
   89  148  -0.03540
   89  149   0.05298
   89  152  -0.05539
   89  153   0.02960
   89  154  -0.05539
   89  155   0.02960
   89  158  -0.06250
   89  159  -0.06250
   90   65   1.00000
   90   66  -1.00000
   90   67   1.00000
   90   68  -0.47368
   90   69   0.88619
   90   70   0.47368
   90   71  -0.88619
   90   74  -0.84776
   90   75   0.56645
   90   76   0.84776
   90   77  -0.56645
   90   80  -1.00000
   90   81   0.09849
   90   82   1.00000
   90   83  -0.09849
   90   86  -1.00000
   90   87  -0.41421
   90   88   1.00000
   90   89   0.41421
   90   92  -0.63746
   90   93  -0.77675
   90   94   0.63746
   90   95   0.77675
   90   98  -0.19891
   90   99  -1.00000
   90  100   0.19891
   90  101   1.00000
   90  104   0.29169
   90  105  -0.96157
   90  106  -0.29169
   90  107   0.96157
   90  110   1.00000
   90  111  -1.00000
   90  112  -1.00000
   90  113   1.00000
   90  116   0.96157
   90  117  -0.29169
   90  118  -0.96157
   90  119   0.29169
   90  122   1.00000
   90  123   0.19891
   90  124  -1.00000
   90  125  -0.19891
   90  128   0.77675
   90  129   0.63746
   90  130  -0.77675
   90  131  -0.63746
   90  134   0.41421
   90  135   1.00000
   90  136  -0.41421
   90  137  -1.00000
   90  140  -0.09849
   90  141   1.00000
   90  142   0.09849
   90  143  -1.00000
   90  146  -0.56645
   90  147   0.84776
   90  148   0.56645
   90  149  -0.84776
   90  152  -0.88619
   90  153   0.47368
   90  154   0.88619
   90  155  -0.47368
   90  158   1.00000
   90  159  -1.00000
   91   65   0.06250
   91   66   0.06250
   91   67  -0.06250
   91   68  -0.00616
   91   69   0.06250
   91   70  -0.00616
   91   71   0.06250
   91   74  -0.01243
   91   75   0.06250
   91   76  -0.01243
   91   77   0.06250
   91   80  -0.01823
   91   81   0.06010
   91   82  -0.01823
   91   83   0.06010
   91   86  -0.02589
   91   87   0.06250
   91   88  -0.02589
   91   89   0.06250
   91   92  -0.02960
   91   93   0.05539
   91   94  -0.02960
   91   95   0.05539
   91   98  -0.03540
   91   99   0.05298
   91  100  -0.03540
   91  101   0.05298
   91  104  -0.03984
   91  105   0.04855
   91  106  -0.03984
   91  107   0.04855
   91  110  -0.06250
   91  111   0.06250
   91  112  -0.06250
   91  113   0.06250
   91  116  -0.04855
   91  117   0.03984
   91  118  -0.04855
   91  119   0.03984
   91  122  -0.05298
   91  123   0.03540
   91  124  -0.05298
   91  125   0.03540
   91  128  -0.05539
   91  129   0.02960
   91  130  -0.05539
   91  131   0.02960
   91  134  -0.06250
   91  135   0.02589
   91  136  -0.06250
   91  137   0.02589
   91  140  -0.06010
   91  141   0.01823
   91  142  -0.06010
   91  143   0.01823
   91  146  -0.06250
   91  147   0.01243
   91  148  -0.06250
   91  149   0.01243
   91  152  -0.06250
   91  153   0.00616
   91  154  -0.06250
   91  155   0.00616
   91  158  -0.06250
   91  159  -0.06250
   92   65   1.00000
   92   66  -1.00000
   92   67   1.00000
   92   68  -0.09849
   92   69   1.00000
   92   70   0.09849
   92   71  -1.00000
   92   74  -0.19891
   92   75   1.00000
   92   76   0.19891
   92   77  -1.00000
   92   80  -0.29169
   92   81   0.96157
   92   82   0.29169
   92   83  -0.96157
   92   86  -0.41421
   92   87   1.00000
   92   88   0.41421
   92   89  -1.00000
   92   92  -0.47368
   92   93   0.88619
   92   94   0.47368
   92   95  -0.88619
   92   98  -0.56645
   92   99   0.84776
   92  100   0.56645
   92  101  -0.84776
   92  104  -0.63746
   92  105   0.77675
   92  106   0.63746
   92  107  -0.77675
   92  110  -1.00000
   92  111   1.00000
   92  112   1.00000
   92  113  -1.00000
   92  116  -0.77675
   92  117   0.63746
   92  118   0.77675
   92  119  -0.63746
   92  122  -0.84776
   92  123   0.56645
   92  124   0.84776
   92  125  -0.56645
   92  128  -0.88619
   92  129   0.47368
   92  130   0.88619
   92  131  -0.47368
   92  134  -1.00000
   92  135   0.41421
   92  136   1.00000
   92  137  -0.41421
   92  140  -0.96157
   92  141   0.29169
   92  142   0.96157
   92  143  -0.29169
   92  146  -1.00000
   92  147   0.19891
   92  148   1.00000
   92  149  -0.19891
   92  152  -1.00000
   92  153   0.09849
   92  154   1.00000
   92  155  -0.09849
   92  158   1.00000
   92  159  -1.00000
   93   65   0.06250
   93   66   0.06250
   93   67  -0.06250
   93   68   0.01823
   93   69   0.06010
   93   70   0.01823
   93   71   0.06010
   93   74   0.03540
   93   75   0.05298
   93   76   0.03540
   93   77   0.05298
   93   80   0.04855
   93   81   0.03984
   93   82   0.04855
   93   83   0.03984
   93   86   0.06250
   93   87   0.02589
   93   88   0.06250
   93   89   0.02589
   93   92   0.06250
   93   93   0.00616
   93   94   0.06250
   93   95   0.00616
   93   98   0.06250
   93   99  -0.01243
   93  100   0.06250
   93  101  -0.01243
   93  104   0.05539
   93  105  -0.02960
   93  106   0.05539
   93  107  -0.02960
   93  110   0.06250
   93  111  -0.06250
   93  112   0.06250
   93  113  -0.06250
   93  116   0.02960
   93  117  -0.05539
   93  118   0.02960
   93  119  -0.05539
   93  122   0.01243
   93  123  -0.06250
   93  124   0.01243
   93  125  -0.06250
   93  128  -0.00616
   93  129  -0.06250
   93  130  -0.00616
   93  131  -0.06250
   93  134  -0.02589
   93  135  -0.06250
   93  136  -0.02589
   93  137  -0.06250
   93  140  -0.03984
   93  141  -0.04855
   93  142  -0.03984
   93  143  -0.04855
   93  146  -0.05298
   93  147  -0.03540
   93  148  -0.05298
   93  149  -0.03540
   93  152  -0.06010
   93  153  -0.01823
   93  154  -0.06010
   93  155  -0.01823
   93  158  -0.06250
   93  159  -0.06250
   94   65   1.00000
   94   66  -1.00000
   94   67   1.00000
   94   68   0.29169
   94   69   0.96157
   94   70  -0.29169
   94   71  -0.96157
   94   74   0.56645
   94   75   0.84776
   94   76  -0.56645
   94   77  -0.84776
   94   80   0.77675
   94   81   0.63746
   94   82  -0.77675
   94   83  -0.63746
   94   86   1.00000
   94   87   0.41421
   94   88  -1.00000
   94   89  -0.41421
   94   92   1.00000
   94   93   0.09849
   94   94  -1.00000
   94   95  -0.09849
   94   98   1.00000
   94   99  -0.19891
   94  100  -1.00000
   94  101   0.19891
   94  104   0.88619
   94  105  -0.47368
   94  106  -0.88619
   94  107   0.47368
   94  110   1.00000
   94  111  -1.00000
   94  112  -1.00000
   94  113   1.00000
   94  116   0.47368
   94  117  -0.88619
   94  118  -0.47368
   94  119   0.88619
   94  122   0.19891
   94  123  -1.00000
   94  124  -0.19891
   94  125   1.00000
   94  128  -0.09849
   94  129  -1.00000
   94  130   0.09849
   94  131   1.00000
   94  134  -0.41421
   94  135  -1.00000
   94  136   0.41421
   94  137   1.00000
   94  140  -0.63746
   94  141  -0.77675
   94  142   0.63746
   94  143   0.77675
   94  146  -0.84776
   94  147  -0.56645
   94  148   0.84776
   94  149   0.56645
   94  152  -0.96157
   94  153  -0.29169
   94  154   0.96157
   94  155   0.29169
   94  158   1.00000
   94  159  -1.00000
   95   65   0.06250
   95   66   0.06250
   95   67  -0.06250
   95   68   0.03984
   95   69   0.04855
   95   70   0.03984
   95   71   0.04855
   95   74   0.06250
   95   75   0.01243
   95   76   0.06250
   95   77   0.01243
   95   80   0.05539
   95   81  -0.02960
   95   82   0.05539
   95   83  -0.02960
   95   86   0.02589
   95   87  -0.06250
   95   88   0.02589
   95   89  -0.06250
   95   92  -0.01823
   95   93  -0.06010
   95   94  -0.01823
   95   95  -0.06010
   95   98  -0.05298
   95   99  -0.03540
   95  100  -0.05298
   95  101  -0.03540
   95  104  -0.06250
   95  105   0.00616
   95  106  -0.06250
   95  107   0.00616
   95  110  -0.06250
   95  111   0.06250
   95  112  -0.06250
   95  113   0.06250
   95  116  -0.00616
   95  117   0.06250
   95  118  -0.00616
   95  119   0.06250
   95  122   0.03540
   95  123   0.05298
   95  124   0.03540
   95  125   0.05298
   95  128   0.06010
   95  129   0.01823
   95  130   0.06010
   95  131   0.01823
   95  134   0.06250
   95  135  -0.02589
   95  136   0.06250
   95  137  -0.02589
   95  140   0.02960
   95  141  -0.05539
   95  142   0.02960
   95  143  -0.05539
   95  146  -0.01243
   95  147  -0.06250
   95  148  -0.01243
   95  149  -0.06250
   95  152  -0.04855
   95  153  -0.03984
   95  154  -0.04855
   95  155  -0.03984
   95  158  -0.06250
   95  159  -0.06250
   96   65   1.00000
   96   66  -1.00000
   96   67   1.00000
   96   68   0.63746
   96   69   0.77675
   96   70  -0.63746
   96   71  -0.77675
   96   74   1.00000
   96   75   0.19891
   96   76  -1.00000
   96   77  -0.19891
   96   80   0.88619
   96   81  -0.47368
   96   82  -0.88619
   96   83   0.47368
   96   86   0.41421
   96   87  -1.00000
   96   88  -0.41421
   96   89   1.00000
   96   92  -0.29169
   96   93  -0.96157
   96   94   0.29169
   96   95   0.96157
   96   98  -0.84776
   96   99  -0.56645
   96  100   0.84776
   96  101   0.56645
   96  104  -1.00000
   96  105   0.09849
   96  106   1.00000
   96  107  -0.09849
   96  110  -1.00000
   96  111   1.00000
   96  112   1.00000
   96  113  -1.00000
   96  116  -0.09849
   96  117   1.00000
   96  118   0.09849
   96  119  -1.00000
   96  122   0.56645
   96  123   0.84776
   96  124  -0.56645
   96  125  -0.84776
   96  128   0.96157
   96  129   0.29169
   96  130  -0.96157
   96  131  -0.29169
   96  134   1.00000
   96  135  -0.41421
   96  136  -1.00000
   96  137   0.41421
   96  140   0.47368
   96  141  -0.88619
   96  142  -0.47368
   96  143   0.88619
   96  146  -0.19891
   96  147  -1.00000
   96  148   0.19891
   96  149   1.00000
   96  152  -0.77675
   96  153  -0.63746
   96  154   0.77675
   96  155   0.63746
   96  158   1.00000
   96  159  -1.00000
   97   65   0.06250
   97   66   0.06250
   97   67  -0.06250
   97   68   0.06010
   97   69   0.01823
   97   70   0.06010
   97   71   0.01823
   97   74   0.03540
   97   75  -0.05298
   97   76   0.03540
   97   77  -0.05298
   97   80  -0.03984
   97   81  -0.04855
   97   82  -0.03984
   97   83  -0.04855
   97   86  -0.06250
   97   87   0.02589
   97   88  -0.06250
   97   89   0.02589
   97   92   0.00616
   97   93   0.06250
   97   94   0.00616
   97   95   0.06250
   97   98   0.06250
   97   99   0.01243
   97  100   0.06250
   97  101   0.01243
   97  104   0.02960
   97  105  -0.05539
   97  106   0.02960
   97  107  -0.05539
   97  110  -0.06250
   97  111  -0.06250
   97  112  -0.06250
   97  113  -0.06250
   97  116  -0.05539
   97  117   0.02960
   97  118  -0.05539
   97  119   0.02960
   97  122   0.01243
   97  123   0.06250
   97  124   0.01243
   97  125   0.06250
   97  128   0.06250
   97  129   0.00616
   97  130   0.06250
   97  131   0.00616
   97  134   0.02589
   97  135  -0.06250
   97  136   0.02589
   97  137  -0.06250
   97  140  -0.04855
   97  141  -0.03984
   97  142  -0.04855
   97  143  -0.03984
   97  146  -0.05298
   97  147   0.03540
   97  148  -0.05298
   97  149   0.03540
   97  152   0.01823
   97  153   0.06010
   97  154   0.01823
   97  155   0.06010
   97  158   0.06250
   97  159   0.06250
   98   65   1.00000
   98   66  -1.00000
   98   67   1.00000
   98   68   0.96157
   98   69   0.29169
   98   70  -0.96157
   98   71  -0.29169
   98   74   0.56645
   98   75  -0.84776
   98   76  -0.56645
   98   77   0.84776
   98   80  -0.63746
   98   81  -0.77675
   98   82   0.63746
   98   83   0.77675
   98   86  -1.00000
   98   87   0.41421
   98   88   1.00000
   98   89  -0.41421
   98   92   0.09849
   98   93   1.00000
   98   94  -0.09849
   98   95  -1.00000
   98   98   1.00000
   98   99   0.19891
   98  100  -1.00000
   98  101  -0.19891
   98  104   0.47368
   98  105  -0.88619
   98  106  -0.47368
   98  107   0.88619
   98  110  -1.00000
   98  111  -1.00000
   98  112   1.00000
   98  113   1.00000
   98  116  -0.88619
   98  117   0.47368
   98  118   0.88619
   98  119  -0.47368
   98  122   0.19891
   98  123   1.00000
   98  124  -0.19891
   98  125  -1.00000
   98  128   1.00000
   98  129   0.09849
   98  130  -1.00000
   98  131  -0.09849
   98  134   0.41421
   98  135  -1.00000
   98  136  -0.41421
   98  137   1.00000
   98  140  -0.77675
   98  141  -0.63746
   98  142   0.77675
   98  143   0.63746
   98  146  -0.84776
   98  147   0.56645
   98  148   0.84776
   98  149  -0.56645
   98  152   0.29169
   98  153   0.96157
   98  154  -0.29169
   98  155  -0.96157
   98  158  -1.00000
   98  159   1.00000
   99   65   0.06250
   99   66   0.06250
   99   67  -0.06250
   99   68   0.06250
   99   69  -0.00616
   99   70   0.06250
   99   71  -0.00616
   99   74  -0.01243
   99   75  -0.06250
   99   76  -0.01243
   99   77  -0.06250
   99   80  -0.06010
   99   81   0.01823
   99   82  -0.06010
   99   83   0.01823
   99   86   0.02589
   99   87   0.06250
   99   88   0.02589
   99   89   0.06250
   99   92   0.05539
   99   93  -0.02960
   99   94   0.05539
   99   95  -0.02960
   99   98  -0.03540
   99   99  -0.05298
   99  100  -0.03540
   99  101  -0.05298
   99  104  -0.04855
   99  105   0.03984
   99  106  -0.04855
   99  107   0.03984
   99  110   0.06250
   99  111   0.06250
   99  112   0.06250
   99  113   0.06250
   99  116   0.03984
   99  117  -0.04855
   99  118   0.03984
   99  119  -0.04855
   99  122  -0.05298
   99  123  -0.03540
   99  124  -0.05298
   99  125  -0.03540
   99  128  -0.02960
   99  129   0.05539
   99  130  -0.02960
   99  131   0.05539
   99  134   0.06250
   99  135   0.02589
   99  136   0.06250
   99  137   0.02589
   99  140   0.01823
   99  141  -0.06010
   99  142   0.01823
   99  143  -0.06010
   99  146  -0.06250
   99  147  -0.01243
   99  148  -0.06250
   99  149  -0.01243
   99  152  -0.00616
   99  153   0.06250
   99  154  -0.00616
   99  155   0.06250
   99  158   0.06250
   99  159   0.06250
  100   65   1.00000
  100   66  -1.00000
  100   67   1.00000
  100   68   1.00000
  100   69  -0.09849
  100   70  -1.00000
  100   71   0.09849
  100   74  -0.19891
  100   75  -1.00000
  100   76   0.19891
  100   77   1.00000
  100   80  -0.96157
  100   81   0.29169
  100   82   0.96157
  100   83  -0.29169
  100   86   0.41421
  100   87   1.00000
  100   88  -0.41421
  100   89  -1.00000
  100   92   0.88619
  100   93  -0.47368
  100   94  -0.88619
  100   95   0.47368
  100   98  -0.56645
  100   99  -0.84776
  100  100   0.56645
  100  101   0.84776
  100  104  -0.77675
  100  105   0.63746
  100  106   0.77675
  100  107  -0.63746
  100  110   1.00000
  100  111   1.00000
  100  112  -1.00000
  100  113  -1.00000
  100  116   0.63746
  100  117  -0.77675
  100  118  -0.63746
  100  119   0.77675
  100  122  -0.84776
  100  123  -0.56645
  100  124   0.84776
  100  125   0.56645
  100  128  -0.47368
  100  129   0.88619
  100  130   0.47368
  100  131  -0.88619
  100  134   1.00000
  100  135   0.41421
  100  136  -1.00000
  100  137  -0.41421
  100  140   0.29169
  100  141  -0.96157
  100  142  -0.29169
  100  143   0.96157
  100  146  -1.00000
  100  147  -0.19891
  100  148   1.00000
  100  149   0.19891
  100  152  -0.09849
  100  153   1.00000
  100  154   0.09849
  100  155  -1.00000
  100  158  -1.00000
  100  159   1.00000
  101   65   0.06250
  101   66   0.06250
  101   67  -0.06250
  101   68   0.05539
  101   69  -0.02960
  101   70   0.05539
  101   71  -0.02960
  101   74  -0.05298
  101   75  -0.03540
  101   76  -0.05298
  101   77  -0.03540
  101   80  -0.00616
  101   81   0.06250
  101   82  -0.00616
  101   83   0.06250
  101   86   0.06250
  101   87  -0.02589
  101   88   0.06250
  101   89  -0.02589
  101   92  -0.04855
  101   93  -0.03984
  101   94  -0.04855
  101   95  -0.03984
  101   98  -0.01243
  101   99   0.06250
  101  100  -0.01243
  101  101   0.06250
  101  104   0.06010
  101  105  -0.01823
  101  106   0.06010
  101  107  -0.01823
  101  110  -0.06250
  101  111  -0.06250
  101  112  -0.06250
  101  113  -0.06250
  101  116  -0.01823
  101  117   0.06010
  101  118  -0.01823
  101  119   0.06010
  101  122   0.06250
  101  123  -0.01243
  101  124   0.06250
  101  125  -0.01243
  101  128  -0.03984
  101  129  -0.04855
  101  130  -0.03984
  101  131  -0.04855
  101  134  -0.02589
  101  135   0.06250
  101  136  -0.02589
  101  137   0.06250
  101  140   0.06250
  101  141  -0.00616
  101  142   0.06250
  101  143  -0.00616
  101  146  -0.03540
  101  147  -0.05298
  101  148  -0.03540
  101  149  -0.05298
  101  152  -0.02960
  101  153   0.05539
  101  154  -0.02960
  101  155   0.05539
  101  158   0.06250
  101  159   0.06250
  102   65   1.00000
  102   66  -1.00000
  102   67   1.00000
  102   68   0.88619
  102   69  -0.47368
  102   70  -0.88619
  102   71   0.47368
  102   74  -0.84776
  102   75  -0.56645
  102   76   0.84776
  102   77   0.56645
  102   80  -0.09849
  102   81   1.00000
  102   82   0.09849
  102   83  -1.00000
  102   86   1.00000
  102   87  -0.41421
  102   88  -1.00000
  102   89   0.41421
  102   92  -0.77675
  102   93  -0.63746
  102   94   0.77675
  102   95   0.63746
  102   98  -0.19891
  102   99   1.00000
  102  100   0.19891
  102  101  -1.00000
  102  104   0.96157
  102  105  -0.29169
  102  106  -0.96157
  102  107   0.29169
  102  110  -1.00000
  102  111  -1.00000
  102  112   1.00000
  102  113   1.00000
  102  116  -0.29169
  102  117   0.96157
  102  118   0.29169
  102  119  -0.96157
  102  122   1.00000
  102  123  -0.19891
  102  124  -1.00000
  102  125   0.19891
  102  128  -0.63746
  102  129  -0.77675
  102  130   0.63746
  102  131   0.77675
  102  134  -0.41421
  102  135   1.00000
  102  136   0.41421
  102  137  -1.00000
  102  140   1.00000
  102  141  -0.09849
  102  142  -1.00000
  102  143   0.09849
  102  146  -0.56645
  102  147  -0.84776
  102  148   0.56645
  102  149   0.84776
  102  152  -0.47368
  102  153   0.88619
  102  154   0.47368
  102  155  -0.88619
  102  158  -1.00000
  102  159   1.00000
  103   65   0.06250
  103   66   0.06250
  103   67  -0.06250
  103   68   0.03984
  103   69  -0.04855
  103   70   0.03984
  103   71  -0.04855
  103   74  -0.06250
  103   75   0.01243
  103   76  -0.06250
  103   77   0.01243
  103   80   0.05539
  103   81   0.02960
  103   82   0.05539
  103   83   0.02960
  103   86  -0.02589
  103   87  -0.06250
  103   88  -0.02589
  103   89  -0.06250
  103   92  -0.01823
  103   93   0.06010
  103   94  -0.01823
  103   95   0.06010
  103   98   0.05298
  103   99  -0.03540
  103  100   0.05298
  103  101  -0.03540
  103  104  -0.06250
  103  105  -0.00616
  103  106  -0.06250
  103  107  -0.00616
  103  110   0.06250
  103  111   0.06250
  103  112   0.06250
  103  113   0.06250
  103  116  -0.00616
  103  117  -0.06250
  103  118  -0.00616
  103  119  -0.06250
  103  122  -0.03540
  103  123   0.05298
  103  124  -0.03540
  103  125   0.05298
  103  128   0.06010
  103  129  -0.01823
  103  130   0.06010
  103  131  -0.01823
  103  134  -0.06250
  103  135  -0.02589
  103  136  -0.06250
  103  137  -0.02589
  103  140   0.02960
  103  141   0.05539
  103  142   0.02960
  103  143   0.05539
  103  146   0.01243
  103  147  -0.06250
  103  148   0.01243
  103  149  -0.06250
  103  152  -0.04855
  103  153   0.03984
  103  154  -0.04855
  103  155   0.03984
  103  158   0.06250
  103  159   0.06250
  104   65   1.00000
  104   66  -1.00000
  104   67   1.00000
  104   68   0.63746
  104   69  -0.77675
  104   70  -0.63746
  104   71   0.77675
  104   74  -1.00000
  104   75   0.19891
  104   76   1.00000
  104   77  -0.19891
  104   80   0.88619
  104   81   0.47368
  104   82  -0.88619
  104   83  -0.47368
  104   86  -0.41421
  104   87  -1.00000
  104   88   0.41421
  104   89   1.00000
  104   92  -0.29169
  104   93   0.96157
  104   94   0.29169
  104   95  -0.96157
  104   98   0.84776
  104   99  -0.56645
  104  100  -0.84776
  104  101   0.56645
  104  104  -1.00000
  104  105  -0.09849
  104  106   1.00000
  104  107   0.09849
  104  110   1.00000
  104  111   1.00000
  104  112  -1.00000
  104  113  -1.00000
  104  116  -0.09849
  104  117  -1.00000
  104  118   0.09849
  104  119   1.00000
  104  122  -0.56645
  104  123   0.84776
  104  124   0.56645
  104  125  -0.84776
  104  128   0.96157
  104  129  -0.29169
  104  130  -0.96157
  104  131   0.29169
  104  134  -1.00000
  104  135  -0.41421
  104  136   1.00000
  104  137   0.41421
  104  140   0.47368
  104  141   0.88619
  104  142  -0.47368
  104  143  -0.88619
  104  146   0.19891
  104  147  -1.00000
  104  148  -0.19891
  104  149   1.00000
  104  152  -0.77675
  104  153   0.63746
  104  154   0.77675
  104  155  -0.63746
  104  158  -1.00000
  104  159   1.00000
  105   65   0.06250
  105   66   0.06250
  105   67  -0.06250
  105   68   0.01823
  105   69  -0.06010
  105   70   0.01823
  105   71  -0.06010
  105   74  -0.03540
  105   75   0.05298
  105   76  -0.03540
  105   77   0.05298
  105   80   0.04855
  105   81  -0.03984
  105   82   0.04855
  105   83  -0.03984
  105   86  -0.06250
  105   87   0.02589
  105   88  -0.06250
  105   89   0.02589
  105   92   0.06250
  105   93  -0.00616
  105   94   0.06250
  105   95  -0.00616
  105   98  -0.06250
  105   99  -0.01243
  105  100  -0.06250
  105  101  -0.01243
  105  104   0.05539
  105  105   0.02960
  105  106   0.05539
  105  107   0.02960
  105  110  -0.06250
  105  111  -0.06250
  105  112  -0.06250
  105  113  -0.06250
  105  116   0.02960
  105  117   0.05539
  105  118   0.02960
  105  119   0.05539
  105  122  -0.01243
  105  123  -0.06250
  105  124  -0.01243
  105  125  -0.06250
  105  128  -0.00616
  105  129   0.06250
  105  130  -0.00616
  105  131   0.06250
  105  134   0.02589
  105  135  -0.06250
  105  136   0.02589
  105  137  -0.06250
  105  140  -0.03984
  105  141   0.04855
  105  142  -0.03984
  105  143   0.04855
  105  146   0.05298
  105  147  -0.03540
  105  148   0.05298
  105  149  -0.03540
  105  152  -0.06010
  105  153   0.01823
  105  154  -0.06010
  105  155   0.01823
  105  158   0.06250
  105  159   0.06250
  106   65   1.00000
  106   66  -1.00000
  106   67   1.00000
  106   68   0.29169
  106   69  -0.96157
  106   70  -0.29169
  106   71   0.96157
  106   74  -0.56645
  106   75   0.84776
  106   76   0.56645
  106   77  -0.84776
  106   80   0.77675
  106   81  -0.63746
  106   82  -0.77675
  106   83   0.63746
  106   86  -1.00000
  106   87   0.41421
  106   88   1.00000
  106   89  -0.41421
  106   92   1.00000
  106   93  -0.09849
  106   94  -1.00000
  106   95   0.09849
  106   98  -1.00000
  106   99  -0.19891
  106  100   1.00000
  106  101   0.19891
  106  104   0.88619
  106  105   0.47368
  106  106  -0.88619
  106  107  -0.47368
  106  110  -1.00000
  106  111  -1.00000
  106  112   1.00000
  106  113   1.00000
  106  116   0.47368
  106  117   0.88619
  106  118  -0.47368
  106  119  -0.88619
  106  122  -0.19891
  106  123  -1.00000
  106  124   0.19891
  106  125   1.00000
  106  128  -0.09849
  106  129   1.00000
  106  130   0.09849
  106  131  -1.00000
  106  134   0.41421
  106  135  -1.00000
  106  136  -0.41421
  106  137   1.00000
  106  140  -0.63746
  106  141   0.77675
  106  142   0.63746
  106  143  -0.77675
  106  146   0.84776
  106  147  -0.56645
  106  148  -0.84776
  106  149   0.56645
  106  152  -0.96157
  106  153   0.29169
  106  154   0.96157
  106  155  -0.29169
  106  158  -1.00000
  106  159   1.00000
  107   65   0.06250
  107   66   0.06250
  107   67  -0.06250
  107   68  -0.00616
  107   69  -0.06250
  107   70  -0.00616
  107   71  -0.06250
  107   74   0.01243
  107   75   0.06250
  107   76   0.01243
  107   77   0.06250
  107   80  -0.01823
  107   81  -0.06010
  107   82  -0.01823
  107   83  -0.06010
  107   86   0.02589
  107   87   0.06250
  107   88   0.02589
  107   89   0.06250
  107   92  -0.02960
  107   93  -0.05539
  107   94  -0.02960
  107   95  -0.05539
  107   98   0.03540
  107   99   0.05298
  107  100   0.03540
  107  101   0.05298
  107  104  -0.03984
  107  105  -0.04855
  107  106  -0.03984
  107  107  -0.04855
  107  110   0.06250
  107  111   0.06250
  107  112   0.06250
  107  113   0.06250
  107  116  -0.04855
  107  117  -0.03984
  107  118  -0.04855
  107  119  -0.03984
  107  122   0.05298
  107  123   0.03540
  107  124   0.05298
  107  125   0.03540
  107  128  -0.05539
  107  129  -0.02960
  107  130  -0.05539
  107  131  -0.02960
  107  134   0.06250
  107  135   0.02589
  107  136   0.06250
  107  137   0.02589
  107  140  -0.06010
  107  141  -0.01823
  107  142  -0.06010
  107  143  -0.01823
  107  146   0.06250
  107  147   0.01243
  107  148   0.06250
  107  149   0.01243
  107  152  -0.06250
  107  153  -0.00616
  107  154  -0.06250
  107  155  -0.00616
  107  158   0.06250
  107  159   0.06250
  108   65   1.00000
  108   66  -1.00000
  108   67   1.00000
  108   68  -0.09849
  108   69  -1.00000
  108   70   0.09849
  108   71   1.00000
  108   74   0.19891
  108   75   1.00000
  108   76  -0.19891
  108   77  -1.00000
  108   80  -0.29169
  108   81  -0.96157
  108   82   0.29169
  108   83   0.96157
  108   86   0.41421
  108   87   1.00000
  108   88  -0.41421
  108   89  -1.00000
  108   92  -0.47368
  108   93  -0.88619
  108   94   0.47368
  108   95   0.88619
  108   98   0.56645
  108   99   0.84776
  108  100  -0.56645
  108  101  -0.84776
  108  104  -0.63746
  108  105  -0.77675
  108  106   0.63746
  108  107   0.77675
  108  110   1.00000
  108  111   1.00000
  108  112  -1.00000
  108  113  -1.00000
  108  116  -0.77675
  108  117  -0.63746
  108  118   0.77675
  108  119   0.63746
  108  122   0.84776
  108  123   0.56645
  108  124  -0.84776
  108  125  -0.56645
  108  128  -0.88619
  108  129  -0.47368
  108  130   0.88619
  108  131   0.47368
  108  134   1.00000
  108  135   0.41421
  108  136  -1.00000
  108  137  -0.41421
  108  140  -0.96157
  108  141  -0.29169
  108  142   0.96157
  108  143   0.29169
  108  146   1.00000
  108  147   0.19891
  108  148  -1.00000
  108  149  -0.19891
  108  152  -1.00000
  108  153  -0.09849
  108  154   1.00000
  108  155   0.09849
  108  158  -1.00000
  108  159   1.00000
  109   65   0.06250
  109   66   0.06250
  109   67  -0.06250
  109   68  -0.02960
  109   69  -0.05539
  109   70  -0.02960
  109   71  -0.05539
  109   74   0.05298
  109   75   0.03540
  109   76   0.05298
  109   77   0.03540
  109   80  -0.06250
  109   81  -0.00616
  109   82  -0.06250
  109   83  -0.00616
  109   86   0.06250
  109   87  -0.02589
  109   88   0.06250
  109   89  -0.02589
  109   92  -0.03984
  109   93   0.04855
  109   94  -0.03984
  109   95   0.04855
  109   98   0.01243
  109   99  -0.06250
  109  100   0.01243
  109  101  -0.06250
  109  104   0.01823
  109  105   0.06010
  109  106   0.01823
  109  107   0.06010
  109  110  -0.06250
  109  111  -0.06250
  109  112  -0.06250
  109  113  -0.06250
  109  116   0.06010
  109  117   0.01823
  109  118   0.06010
  109  119   0.01823
  109  122  -0.06250
  109  123   0.01243
  109  124  -0.06250
  109  125   0.01243
  109  128   0.04855
  109  129  -0.03984
  109  130   0.04855
  109  131  -0.03984
  109  134  -0.02589
  109  135   0.06250
  109  136  -0.02589
  109  137   0.06250
  109  140  -0.00616
  109  141  -0.06250
  109  142  -0.00616
  109  143  -0.06250
  109  146   0.03540
  109  147   0.05298
  109  148   0.03540
  109  149   0.05298
  109  152  -0.05539
  109  153  -0.02960
  109  154  -0.05539
  109  155  -0.02960
  109  158   0.06250
  109  159   0.06250
  110   65   1.00000
  110   66  -1.00000
  110   67   1.00000
  110   68  -0.47368
  110   69  -0.88619
  110   70   0.47368
  110   71   0.88619
  110   74   0.84776
  110   75   0.56645
  110   76  -0.84776
  110   77  -0.56645
  110   80  -1.00000
  110   81  -0.09849
  110   82   1.00000
  110   83   0.09849
  110   86   1.00000
  110   87  -0.41421
  110   88  -1.00000
  110   89   0.41421
  110   92  -0.63746
  110   93   0.77675
  110   94   0.63746
  110   95  -0.77675
  110   98   0.19891
  110   99  -1.00000
  110  100  -0.19891
  110  101   1.00000
  110  104   0.29169
  110  105   0.96157
  110  106  -0.29169
  110  107  -0.96157
  110  110  -1.00000
  110  111  -1.00000
  110  112   1.00000
  110  113   1.00000
  110  116   0.96157
  110  117   0.29169
  110  118  -0.96157
  110  119  -0.29169
  110  122  -1.00000
  110  123   0.19891
  110  124   1.00000
  110  125  -0.19891
  110  128   0.77675
  110  129  -0.63746
  110  130  -0.77675
  110  131   0.63746
  110  134  -0.41421
  110  135   1.00000
  110  136   0.41421
  110  137  -1.00000
  110  140  -0.09849
  110  141  -1.00000
  110  142   0.09849
  110  143   1.00000
  110  146   0.56645
  110  147   0.84776
  110  148  -0.56645
  110  149  -0.84776
  110  152  -0.88619
  110  153  -0.47368
  110  154   0.88619
  110  155   0.47368
  110  158  -1.00000
  110  159   1.00000
  111   65   0.06250
  111   66   0.06250
  111   67  -0.06250
  111   68  -0.04855
  111   69  -0.03984
  111   70  -0.04855
  111   71  -0.03984
  111   74   0.06250
  111   75  -0.01243
  111   76   0.06250
  111   77  -0.01243
  111   80  -0.02960
  111   81   0.05539
  111   82  -0.02960
  111   83   0.05539
  111   86  -0.02589
  111   87  -0.06250
  111   88  -0.02589
  111   89  -0.06250
  111   92   0.06010
  111   93   0.01823
  111   94   0.06010
  111   95   0.01823
  111   98  -0.05298
  111   99   0.03540
  111  100  -0.05298
  111  101   0.03540
  111  104   0.00616
  111  105  -0.06250
  111  106   0.00616
  111  107  -0.06250
  111  110   0.06250
  111  111   0.06250
  111  112   0.06250
  111  113   0.06250
  111  116  -0.06250
  111  117   0.00616
  111  118  -0.06250
  111  119   0.00616
  111  122   0.03540
  111  123  -0.05298
  111  124   0.03540
  111  125  -0.05298
  111  128   0.01823
  111  129   0.06010
  111  130   0.01823
  111  131   0.06010
  111  134  -0.06250
  111  135  -0.02589
  111  136  -0.06250
  111  137  -0.02589
  111  140   0.05539
  111  141  -0.02960
  111  142   0.05539
  111  143  -0.02960
  111  146  -0.01243
  111  147   0.06250
  111  148  -0.01243
  111  149   0.06250
  111  152  -0.03984
  111  153  -0.04855
  111  154  -0.03984
  111  155  -0.04855
  111  158   0.06250
  111  159   0.06250
  112   65   1.00000
  112   66  -1.00000
  112   67   1.00000
  112   68  -0.77675
  112   69  -0.63746
  112   70   0.77675
  112   71   0.63746
  112   74   1.00000
  112   75  -0.19891
  112   76  -1.00000
  112   77   0.19891
  112   80  -0.47368
  112   81   0.88619
  112   82   0.47368
  112   83  -0.88619
  112   86  -0.41421
  112   87  -1.00000
  112   88   0.41421
  112   89   1.00000
  112   92   0.96157
  112   93   0.29169
  112   94  -0.96157
  112   95  -0.29169
  112   98  -0.84776
  112   99   0.56645
  112  100   0.84776
  112  101  -0.56645
  112  104   0.09849
  112  105  -1.00000
  112  106  -0.09849
  112  107   1.00000
  112  110   1.00000
  112  111   1.00000
  112  112  -1.00000
  112  113  -1.00000
  112  116  -1.00000
  112  117   0.09849
  112  118   1.00000
  112  119  -0.09849
  112  122   0.56645
  112  123  -0.84776
  112  124  -0.56645
  112  125   0.84776
  112  128   0.29169
  112  129   0.96157
  112  130  -0.29169
  112  131  -0.96157
  112  134  -1.00000
  112  135  -0.41421
  112  136   1.00000
  112  137   0.41421
  112  140   0.88619
  112  141  -0.47368
  112  142  -0.88619
  112  143   0.47368
  112  146  -0.19891
  112  147   1.00000
  112  148   0.19891
  112  149  -1.00000
  112  152  -0.63746
  112  153  -0.77675
  112  154   0.63746
  112  155   0.77675
  112  158  -1.00000
  112  159   1.00000
  113   65   0.06250
  113   66   0.06250
  113   67  -0.06250
  113   68  -0.06010
  113   69  -0.01823
  113   70  -0.06010
  113   71  -0.01823
  113   74   0.03540
  113   75  -0.05298
  113   76   0.03540
  113   77  -0.05298
  113   80   0.03984
  113   81   0.04855
  113   82   0.03984
  113   83   0.04855
  113   86  -0.06250
  113   87   0.02589
  113   88  -0.06250
  113   89   0.02589
  113   92  -0.00616
  113   93  -0.06250
  113   94  -0.00616
  113   95  -0.06250
  113   98   0.06250
  113   99   0.01243
  113  100   0.06250
  113  101   0.01243
  113  104  -0.02960
  113  105   0.05539
  113  106  -0.02960
  113  107   0.05539
  113  110  -0.06250
  113  111  -0.06250
  113  112  -0.06250
  113  113  -0.06250
  113  116   0.05539
  113  117  -0.02960
  113  118   0.05539
  113  119  -0.02960
  113  122   0.01243
  113  123   0.06250
  113  124   0.01243
  113  125   0.06250
  113  128  -0.06250
  113  129  -0.00616
  113  130  -0.06250
  113  131  -0.00616
  113  134   0.02589
  113  135  -0.06250
  113  136   0.02589
  113  137  -0.06250
  113  140   0.04855
  113  141   0.03984
  113  142   0.04855
  113  143   0.03984
  113  146  -0.05298
  113  147   0.03540
  113  148  -0.05298
  113  149   0.03540
  113  152  -0.01823
  113  153  -0.06010
  113  154  -0.01823
  113  155  -0.06010
  113  158   0.06250
  113  159   0.06250
  114   65   1.00000
  114   66  -1.00000
  114   67   1.00000
  114   68  -0.96157
  114   69  -0.29169
  114   70   0.96157
  114   71   0.29169
  114   74   0.56645
  114   75  -0.84776
  114   76  -0.56645
  114   77   0.84776
  114   80   0.63746
  114   81   0.77675
  114   82  -0.63746
  114   83  -0.77675
  114   86  -1.00000
  114   87   0.41421
  114   88   1.00000
  114   89  -0.41421
  114   92  -0.09849
  114   93  -1.00000
  114   94   0.09849
  114   95   1.00000
  114   98   1.00000
  114   99   0.19891
  114  100  -1.00000
  114  101  -0.19891
  114  104  -0.47368
  114  105   0.88619
  114  106   0.47368
  114  107  -0.88619
  114  110  -1.00000
  114  111  -1.00000
  114  112   1.00000
  114  113   1.00000
  114  116   0.88619
  114  117  -0.47368
  114  118  -0.88619
  114  119   0.47368
  114  122   0.19891
  114  123   1.00000
  114  124  -0.19891
  114  125  -1.00000
  114  128  -1.00000
  114  129  -0.09849
  114  130   1.00000
  114  131   0.09849
  114  134   0.41421
  114  135  -1.00000
  114  136  -0.41421
  114  137   1.00000
  114  140   0.77675
  114  141   0.63746
  114  142  -0.77675
  114  143  -0.63746
  114  146  -0.84776
  114  147   0.56645
  114  148   0.84776
  114  149  -0.56645
  114  152  -0.29169
  114  153  -0.96157
  114  154   0.29169
  114  155   0.96157
  114  158  -1.00000
  114  159   1.00000
  115   65   0.06250
  115   66   0.06250
  115   67  -0.06250
  115   68  -0.06250
  115   69   0.00616
  115   70  -0.06250
  115   71   0.00616
  115   74  -0.01243
  115   75  -0.06250
  115   76  -0.01243
  115   77  -0.06250
  115   80   0.06010
  115   81  -0.01823
  115   82   0.06010
  115   83  -0.01823
  115   86   0.02589
  115   87   0.06250
  115   88   0.02589
  115   89   0.06250
  115   92  -0.05539
  115   93   0.02960
  115   94  -0.05539
  115   95   0.02960
  115   98  -0.03540
  115   99  -0.05298
  115  100  -0.03540
  115  101  -0.05298
  115  104   0.04855
  115  105  -0.03984
  115  106   0.04855
  115  107  -0.03984
  115  110   0.06250
  115  111   0.06250
  115  112   0.06250
  115  113   0.06250
  115  116  -0.03984
  115  117   0.04855
  115  118  -0.03984
  115  119   0.04855
  115  122  -0.05298
  115  123  -0.03540
  115  124  -0.05298
  115  125  -0.03540
  115  128   0.02960
  115  129  -0.05539
  115  130   0.02960
  115  131  -0.05539
  115  134   0.06250
  115  135   0.02589
  115  136   0.06250
  115  137   0.02589
  115  140  -0.01823
  115  141   0.06010
  115  142  -0.01823
  115  143   0.06010
  115  146  -0.06250
  115  147  -0.01243
  115  148  -0.06250
  115  149  -0.01243
  115  152   0.00616
  115  153  -0.06250
  115  154   0.00616
  115  155  -0.06250
  115  158   0.06250
  115  159   0.06250
  116   65   1.00000
  116   66  -1.00000
  116   67   1.00000
  116   68  -1.00000
  116   69   0.09849
  116   70   1.00000
  116   71  -0.09849
  116   74  -0.19891
  116   75  -1.00000
  116   76   0.19891
  116   77   1.00000
  116   80   0.96157
  116   81  -0.29169
  116   82  -0.96157
  116   83   0.29169
  116   86   0.41421
  116   87   1.00000
  116   88  -0.41421
  116   89  -1.00000
  116   92  -0.88619
  116   93   0.47368
  116   94   0.88619
  116   95  -0.47368
  116   98  -0.56645
  116   99  -0.84776
  116  100   0.56645
  116  101   0.84776
  116  104   0.77675
  116  105  -0.63746
  116  106  -0.77675
  116  107   0.63746
  116  110   1.00000
  116  111   1.00000
  116  112  -1.00000
  116  113  -1.00000
  116  116  -0.63746
  116  117   0.77675
  116  118   0.63746
  116  119  -0.77675
  116  122  -0.84776
  116  123  -0.56645
  116  124   0.84776
  116  125   0.56645
  116  128   0.47368
  116  129  -0.88619
  116  130  -0.47368
  116  131   0.88619
  116  134   1.00000
  116  135   0.41421
  116  136  -1.00000
  116  137  -0.41421
  116  140  -0.29169
  116  141   0.96157
  116  142   0.29169
  116  143  -0.96157
  116  146  -1.00000
  116  147  -0.19891
  116  148   1.00000
  116  149   0.19891
  116  152   0.09849
  116  153  -1.00000
  116  154  -0.09849
  116  155   1.00000
  116  158  -1.00000
  116  159   1.00000
  117   65   0.06250
  117   66   0.06250
  117   67  -0.06250
  117   68  -0.05539
  117   69   0.02960
  117   70  -0.05539
  117   71   0.02960
  117   74  -0.05298
  117   75  -0.03540
  117   76  -0.05298
  117   77  -0.03540
  117   80   0.00616
  117   81  -0.06250
  117   82   0.00616
  117   83  -0.06250
  117   86   0.06250
  117   87  -0.02589
  117   88   0.06250
  117   89  -0.02589
  117   92   0.04855
  117   93   0.03984
  117   94   0.04855
  117   95   0.03984
  117   98  -0.01243
  117   99   0.06250
  117  100  -0.01243
  117  101   0.06250
  117  104  -0.06010
  117  105   0.01823
  117  106  -0.06010
  117  107   0.01823
  117  110  -0.06250
  117  111  -0.06250
  117  112  -0.06250
  117  113  -0.06250
  117  116   0.01823
  117  117  -0.06010
  117  118   0.01823
  117  119  -0.06010
  117  122   0.06250
  117  123  -0.01243
  117  124   0.06250
  117  125  -0.01243
  117  128   0.03984
  117  129   0.04855
  117  130   0.03984
  117  131   0.04855
  117  134  -0.02589
  117  135   0.06250
  117  136  -0.02589
  117  137   0.06250
  117  140  -0.06250
  117  141   0.00616
  117  142  -0.06250
  117  143   0.00616
  117  146  -0.03540
  117  147  -0.05298
  117  148  -0.03540
  117  149  -0.05298
  117  152   0.02960
  117  153  -0.05539
  117  154   0.02960
  117  155  -0.05539
  117  158   0.06250
  117  159   0.06250
  118   65   1.00000
  118   66  -1.00000
  118   67   1.00000
  118   68  -0.88619
  118   69   0.47368
  118   70   0.88619
  118   71  -0.47368
  118   74  -0.84776
  118   75  -0.56645
  118   76   0.84776
  118   77   0.56645
  118   80   0.09849
  118   81  -1.00000
  118   82  -0.09849
  118   83   1.00000
  118   86   1.00000
  118   87  -0.41421
  118   88  -1.00000
  118   89   0.41421
  118   92   0.77675
  118   93   0.63746
  118   94  -0.77675
  118   95  -0.63746
  118   98  -0.19891
  118   99   1.00000
  118  100   0.19891
  118  101  -1.00000
  118  104  -0.96157
  118  105   0.29169
  118  106   0.96157
  118  107  -0.29169
  118  110  -1.00000
  118  111  -1.00000
  118  112   1.00000
  118  113   1.00000
  118  116   0.29169
  118  117  -0.96157
  118  118  -0.29169
  118  119   0.96157
  118  122   1.00000
  118  123  -0.19891
  118  124  -1.00000
  118  125   0.19891
  118  128   0.63746
  118  129   0.77675
  118  130  -0.63746
  118  131  -0.77675
  118  134  -0.41421
  118  135   1.00000
  118  136   0.41421
  118  137  -1.00000
  118  140  -1.00000
  118  141   0.09849
  118  142   1.00000
  118  143  -0.09849
  118  146  -0.56645
  118  147  -0.84776
  118  148   0.56645
  118  149   0.84776
  118  152   0.47368
  118  153  -0.88619
  118  154  -0.47368
  118  155   0.88619
  118  158  -1.00000
  118  159   1.00000
  119   65   0.06250
  119   66   0.06250
  119   67  -0.06250
  119   68  -0.03984
  119   69   0.04855
  119   70  -0.03984
  119   71   0.04855
  119   74  -0.06250
  119   75   0.01243
  119   76  -0.06250
  119   77   0.01243
  119   80  -0.05539
  119   81  -0.02960
  119   82  -0.05539
  119   83  -0.02960
  119   86  -0.02589
  119   87  -0.06250
  119   88  -0.02589
  119   89  -0.06250
  119   92   0.01823
  119   93  -0.06010
  119   94   0.01823
  119   95  -0.06010
  119   98   0.05298
  119   99  -0.03540
  119  100   0.05298
  119  101  -0.03540
  119  104   0.06250
  119  105   0.00616
  119  106   0.06250
  119  107   0.00616
  119  110   0.06250
  119  111   0.06250
  119  112   0.06250
  119  113   0.06250
  119  116   0.00616
  119  117   0.06250
  119  118   0.00616
  119  119   0.06250
  119  122  -0.03540
  119  123   0.05298
  119  124  -0.03540
  119  125   0.05298
  119  128  -0.06010
  119  129   0.01823
  119  130  -0.06010
  119  131   0.01823
  119  134  -0.06250
  119  135  -0.02589
  119  136  -0.06250
  119  137  -0.02589
  119  140  -0.02960
  119  141  -0.05539
  119  142  -0.02960
  119  143  -0.05539
  119  146   0.01243
  119  147  -0.06250
  119  148   0.01243
  119  149  -0.06250
  119  152   0.04855
  119  153  -0.03984
  119  154   0.04855
  119  155  -0.03984
  119  158   0.06250
  119  159   0.06250
  120   65   1.00000
  120   66  -1.00000
  120   67   1.00000
  120   68  -0.63746
  120   69   0.77675
  120   70   0.63746
  120   71  -0.77675
  120   74  -1.00000
  120   75   0.19891
  120   76   1.00000
  120   77  -0.19891
  120   80  -0.88619
  120   81  -0.47368
  120   82   0.88619
  120   83   0.47368
  120   86  -0.41421
  120   87  -1.00000
  120   88   0.41421
  120   89   1.00000
  120   92   0.29169
  120   93  -0.96157
  120   94  -0.29169
  120   95   0.96157
  120   98   0.84776
  120   99  -0.56645
  120  100  -0.84776
  120  101   0.56645
  120  104   1.00000
  120  105   0.09849
  120  106  -1.00000
  120  107  -0.09849
  120  110   1.00000
  120  111   1.00000
  120  112  -1.00000
  120  113  -1.00000
  120  116   0.09849
  120  117   1.00000
  120  118  -0.09849
  120  119  -1.00000
  120  122  -0.56645
  120  123   0.84776
  120  124   0.56645
  120  125  -0.84776
  120  128  -0.96157
  120  129   0.29169
  120  130   0.96157
  120  131  -0.29169
  120  134  -1.00000
  120  135  -0.41421
  120  136   1.00000
  120  137   0.41421
  120  140  -0.47368
  120  141  -0.88619
  120  142   0.47368
  120  143   0.88619
  120  146   0.19891
  120  147  -1.00000
  120  148  -0.19891
  120  149   1.00000
  120  152   0.77675
  120  153  -0.63746
  120  154  -0.77675
  120  155   0.63746
  120  158  -1.00000
  120  159   1.00000
  121   65   0.06250
  121   66   0.06250
  121   67  -0.06250
  121   68  -0.01823
  121   69   0.06010
  121   70  -0.01823
  121   71   0.06010
  121   74  -0.03540
  121   75   0.05298
  121   76  -0.03540
  121   77   0.05298
  121   80  -0.04855
  121   81   0.03984
  121   82  -0.04855
  121   83   0.03984
  121   86  -0.06250
  121   87   0.02589
  121   88  -0.06250
  121   89   0.02589
  121   92  -0.06250
  121   93   0.00616
  121   94  -0.06250
  121   95   0.00616
  121   98  -0.06250
  121   99  -0.01243
  121  100  -0.06250
  121  101  -0.01243
  121  104  -0.05539
  121  105  -0.02960
  121  106  -0.05539
  121  107  -0.02960
  121  110  -0.06250
  121  111  -0.06250
  121  112  -0.06250
  121  113  -0.06250
  121  116  -0.02960
  121  117  -0.05539
  121  118  -0.02960
  121  119  -0.05539
  121  122  -0.01243
  121  123  -0.06250
  121  124  -0.01243
  121  125  -0.06250
  121  128   0.00616
  121  129  -0.06250
  121  130   0.00616
  121  131  -0.06250
  121  134   0.02589
  121  135  -0.06250
  121  136   0.02589
  121  137  -0.06250
  121  140   0.03984
  121  141  -0.04855
  121  142   0.03984
  121  143  -0.04855
  121  146   0.05298
  121  147  -0.03540
  121  148   0.05298
  121  149  -0.03540
  121  152   0.06010
  121  153  -0.01823
  121  154   0.06010
  121  155  -0.01823
  121  158   0.06250
  121  159   0.06250
  122   65   1.00000
  122   66  -1.00000
  122   67   1.00000
  122   68  -0.29169
  122   69   0.96157
  122   70   0.29169
  122   71  -0.96157
  122   74  -0.56645
  122   75   0.84776
  122   76   0.56645
  122   77  -0.84776
  122   80  -0.77675
  122   81   0.63746
  122   82   0.77675
  122   83  -0.63746
  122   86  -1.00000
  122   87   0.41421
  122   88   1.00000
  122   89  -0.41421
  122   92  -1.00000
  122   93   0.09849
  122   94   1.00000
  122   95  -0.09849
  122   98  -1.00000
  122   99  -0.19891
  122  100   1.00000
  122  101   0.19891
  122  104  -0.88619
  122  105  -0.47368
  122  106   0.88619
  122  107   0.47368
  122  110  -1.00000
  122  111  -1.00000
  122  112   1.00000
  122  113   1.00000
  122  116  -0.47368
  122  117  -0.88619
  122  118   0.47368
  122  119   0.88619
  122  122  -0.19891
  122  123  -1.00000
  122  124   0.19891
  122  125   1.00000
  122  128   0.09849
  122  129  -1.00000
  122  130  -0.09849
  122  131   1.00000
  122  134   0.41421
  122  135  -1.00000
  122  136  -0.41421
  122  137   1.00000
  122  140   0.63746
  122  141  -0.77675
  122  142  -0.63746
  122  143   0.77675
  122  146   0.84776
  122  147  -0.56645
  122  148  -0.84776
  122  149   0.56645
  122  152   0.96157
  122  153  -0.29169
  122  154  -0.96157
  122  155   0.29169
  122  158  -1.00000
  122  159   1.00000
  123   65   0.06250
  123   66   0.06250
  123   67  -0.06250
  123   68   0.00616
  123   69   0.06250
  123   70   0.00616
  123   71   0.06250
  123   74   0.01243
  123   75   0.06250
  123   76   0.01243
  123   77   0.06250
  123   80   0.01823
  123   81   0.06010
  123   82   0.01823
  123   83   0.06010
  123   86   0.02589
  123   87   0.06250
  123   88   0.02589
  123   89   0.06250
  123   92   0.02960
  123   93   0.05539
  123   94   0.02960
  123   95   0.05539
  123   98   0.03540
  123   99   0.05298
  123  100   0.03540
  123  101   0.05298
  123  104   0.03984
  123  105   0.04855
  123  106   0.03984
  123  107   0.04855
  123  110   0.06250
  123  111   0.06250
  123  112   0.06250
  123  113   0.06250
  123  116   0.04855
  123  117   0.03984
  123  118   0.04855
  123  119   0.03984
  123  122   0.05298
  123  123   0.03540
  123  124   0.05298
  123  125   0.03540
  123  128   0.05539
  123  129   0.02960
  123  130   0.05539
  123  131   0.02960
  123  134   0.06250
  123  135   0.02589
  123  136   0.06250
  123  137   0.02589
  123  140   0.06010
  123  141   0.01823
  123  142   0.06010
  123  143   0.01823
  123  146   0.06250
  123  147   0.01243
  123  148   0.06250
  123  149   0.01243
  123  152   0.06250
  123  153   0.00616
  123  154   0.06250
  123  155   0.00616
  123  158   0.06250
  123  159   0.06250
  124   65   1.00000
  124   66  -1.00000
  124   67   1.00000
  124   68   0.09849
  124   69   1.00000
  124   70  -0.09849
  124   71  -1.00000
  124   74   0.19891
  124   75   1.00000
  124   76  -0.19891
  124   77  -1.00000
  124   80   0.29169
  124   81   0.96157
  124   82  -0.29169
  124   83  -0.96157
  124   86   0.41421
  124   87   1.00000
  124   88  -0.41421
  124   89  -1.00000
  124   92   0.47368
  124   93   0.88619
  124   94  -0.47368
  124   95  -0.88619
  124   98   0.56645
  124   99   0.84776
  124  100  -0.56645
  124  101  -0.84776
  124  104   0.63746
  124  105   0.77675
  124  106  -0.63746
  124  107  -0.77675
  124  110   1.00000
  124  111   1.00000
  124  112  -1.00000
  124  113  -1.00000
  124  116   0.77675
  124  117   0.63746
  124  118  -0.77675
  124  119  -0.63746
  124  122   0.84776
  124  123   0.56645
  124  124  -0.84776
  124  125  -0.56645
  124  128   0.88619
  124  129   0.47368
  124  130  -0.88619
  124  131  -0.47368
  124  134   1.00000
  124  135   0.41421
  124  136  -1.00000
  124  137  -0.41421
  124  140   0.96157
  124  141   0.29169
  124  142  -0.96157
  124  143  -0.29169
  124  146   1.00000
  124  147   0.19891
  124  148  -1.00000
  124  149  -0.19891
  124  152   1.00000
  124  153   0.09849
  124  154  -1.00000
  124  155  -0.09849
  124  158  -1.00000
  124  159   1.00000
  125   65   0.06250
  125   66   0.06250
  125   67  -0.06250
  125   68   0.02960
  125   69   0.05539
  125   70   0.02960
  125   71   0.05539
  125   74   0.05298
  125   75   0.03540
  125   76   0.05298
  125   77   0.03540
  125   80   0.06250
  125   81   0.00616
  125   82   0.06250
  125   83   0.00616
  125   86   0.06250
  125   87  -0.02589
  125   88   0.06250
  125   89  -0.02589
  125   92   0.03984
  125   93  -0.04855
  125   94   0.03984
  125   95  -0.04855
  125   98   0.01243
  125   99  -0.06250
  125  100   0.01243
  125  101  -0.06250
  125  104  -0.01823
  125  105  -0.06010
  125  106  -0.01823
  125  107  -0.06010
  125  110  -0.06250
  125  111  -0.06250
  125  112  -0.06250
  125  113  -0.06250
  125  116  -0.06010
  125  117  -0.01823
  125  118  -0.06010
  125  119  -0.01823
  125  122  -0.06250
  125  123   0.01243
  125  124  -0.06250
  125  125   0.01243
  125  128  -0.04855
  125  129   0.03984
  125  130  -0.04855
  125  131   0.03984
  125  134  -0.02589
  125  135   0.06250
  125  136  -0.02589
  125  137   0.06250
  125  140   0.00616
  125  141   0.06250
  125  142   0.00616
  125  143   0.06250
  125  146   0.03540
  125  147   0.05298
  125  148   0.03540
  125  149   0.05298
  125  152   0.05539
  125  153   0.02960
  125  154   0.05539
  125  155   0.02960
  125  158   0.06250
  125  159   0.06250
  126   65   1.00000
  126   66  -1.00000
  126   67   1.00000
  126   68   0.47368
  126   69   0.88619
  126   70  -0.47368
  126   71  -0.88619
  126   74   0.84776
  126   75   0.56645
  126   76  -0.84776
  126   77  -0.56645
  126   80   1.00000
  126   81   0.09849
  126   82  -1.00000
  126   83  -0.09849
  126   86   1.00000
  126   87  -0.41421
  126   88  -1.00000
  126   89   0.41421
  126   92   0.63746
  126   93  -0.77675
  126   94  -0.63746
  126   95   0.77675
  126   98   0.19891
  126   99  -1.00000
  126  100  -0.19891
  126  101   1.00000
  126  104  -0.29169
  126  105  -0.96157
  126  106   0.29169
  126  107   0.96157
  126  110  -1.00000
  126  111  -1.00000
  126  112   1.00000
  126  113   1.00000
  126  116  -0.96157
  126  117  -0.29169
  126  118   0.96157
  126  119   0.29169
  126  122  -1.00000
  126  123   0.19891
  126  124   1.00000
  126  125  -0.19891
  126  128  -0.77675
  126  129   0.63746
  126  130   0.77675
  126  131  -0.63746
  126  134  -0.41421
  126  135   1.00000
  126  136   0.41421
  126  137  -1.00000
  126  140   0.09849
  126  141   1.00000
  126  142  -0.09849
  126  143  -1.00000
  126  146   0.56645
  126  147   0.84776
  126  148  -0.56645
  126  149  -0.84776
  126  152   0.88619
  126  153   0.47368
  126  154  -0.88619
  126  155  -0.47368
  126  158  -1.00000
  126  159   1.00000
  127   65   0.06250
  127   66   0.06250
  127   67  -0.06250
  127   68   0.04855
  127   69   0.03984
  127   70   0.04855
  127   71   0.03984
  127   74   0.06250
  127   75  -0.01243
  127   76   0.06250
  127   77  -0.01243
  127   80   0.02960
  127   81  -0.05539
  127   82   0.02960
  127   83  -0.05539
  127   86  -0.02589
  127   87  -0.06250
  127   88  -0.02589
  127   89  -0.06250
  127   92  -0.06010
  127   93  -0.01823
  127   94  -0.06010
  127   95  -0.01823
  127   98  -0.05298
  127   99   0.03540
  127  100  -0.05298
  127  101   0.03540
  127  104  -0.00616
  127  105   0.06250
  127  106  -0.00616
  127  107   0.06250
  127  110   0.06250
  127  111   0.06250
  127  112   0.06250
  127  113   0.06250
  127  116   0.06250
  127  117  -0.00616
  127  118   0.06250
  127  119  -0.00616
  127  122   0.03540
  127  123  -0.05298
  127  124   0.03540
  127  125  -0.05298
  127  128  -0.01823
  127  129  -0.06010
  127  130  -0.01823
  127  131  -0.06010
  127  134  -0.06250
  127  135  -0.02589
  127  136  -0.06250
  127  137  -0.02589
  127  140  -0.05539
  127  141   0.02960
  127  142  -0.05539
  127  143   0.02960
  127  146  -0.01243
  127  147   0.06250
  127  148  -0.01243
  127  149   0.06250
  127  152   0.03984
  127  153   0.04855
  127  154   0.03984
  127  155   0.04855
  127  158   0.06250
  127  159   0.06250
  128   65   1.00000
  128   66  -1.00000
  128   67   1.00000
  128   68   0.77675
  128   69   0.63746
  128   70  -0.77675
  128   71  -0.63746
  128   74   1.00000
  128   75  -0.19891
  128   76  -1.00000
  128   77   0.19891
  128   80   0.47368
  128   81  -0.88619
  128   82  -0.47368
  128   83   0.88619
  128   86  -0.41421
  128   87  -1.00000
  128   88   0.41421
  128   89   1.00000
  128   92  -0.96157
  128   93  -0.29169
  128   94   0.96157
  128   95   0.29169
  128   98  -0.84776
  128   99   0.56645
  128  100   0.84776
  128  101  -0.56645
  128  104  -0.09849
  128  105   1.00000
  128  106   0.09849
  128  107  -1.00000
  128  110   1.00000
  128  111   1.00000
  128  112  -1.00000
  128  113  -1.00000
  128  116   1.00000
  128  117  -0.09849
  128  118  -1.00000
  128  119   0.09849
  128  122   0.56645
  128  123  -0.84776
  128  124  -0.56645
  128  125   0.84776
  128  128  -0.29169
  128  129  -0.96157
  128  130   0.29169
  128  131   0.96157
  128  134  -1.00000
  128  135  -0.41421
  128  136   1.00000
  128  137   0.41421
  128  140  -0.88619
  128  141   0.47368
  128  142   0.88619
  128  143  -0.47368
  128  146  -0.19891
  128  147   1.00000
  128  148   0.19891
  128  149  -1.00000
  128  152   0.63746
  128  153   0.77675
  128  154  -0.63746
  128  155  -0.77675
  128  158  -1.00000
  128  159   1.00000
  129   66   0.12500
  129   67   0.12500
  129   78   0.70711
  129   79  -0.70711
  129   90  -1.00000
  129  102   0.70711
  129  103   0.70711
  129  115  -1.00000
  129  126  -0.70711
  129  127   0.70711
  129  138   1.00000
  129  150  -0.70711
  129  151  -0.70711
  129  160   1.00000
  130   72   0.92388
  130   73   0.38268
  130   84  -0.38268
  130   85  -0.92388
  130   96  -0.38268
  130   97   0.92388
  130  108   0.92388
  130  109  -0.38268
  130  120  -0.92388
  130  121  -0.38268
  130  132   0.38268
  130  133   0.92388
  130  144   0.38268
  130  145  -0.92388
  130  156  -0.92388
  130  157   0.38268
  131   66   0.12500
  131   67   0.12500
  131   79  -1.00000
  131   91   1.00000
  131  103  -1.00000
  131  115   1.00000
  131  127  -1.00000
  131  139   1.00000
  131  151  -1.00000
  131  160   1.00000
  132   72   1.00000
  132   84  -1.00000
  132   96   1.00000
  132  108  -1.00000
  132  120   1.00000
  132  132  -1.00000
  132  144   1.00000
  132  156  -1.00000
  133   66   0.12500
  133   67   0.12500
  133   78  -0.70711
  133   79  -0.70711
  133   90   1.00000
  133  102  -0.70711
  133  103   0.70711
  133  115  -1.00000
  133  126   0.70711
  133  127   0.70711
  133  138  -1.00000
  133  150   0.70711
  133  151  -0.70711
  133  160   1.00000
  134   72   0.92388
  134   73  -0.38268
  134   84  -0.38268
  134   85   0.92388
  134   96  -0.38268
  134   97  -0.92388
  134  108   0.92388
  134  109   0.38268
  134  120  -0.92388
  134  121   0.38268
  134  132   0.38268
  134  133  -0.92388
  134  144   0.38268
  134  145   0.92388
  134  156  -0.92388
  134  157  -0.38268
  135   66   0.12500
  135   67   0.12500
  135   78  -1.00000
  135   91  -1.00000
  135  102   1.00000
  135  115   1.00000
  135  126  -1.00000
  135  139  -1.00000
  135  150   1.00000
  135  160   1.00000
  136   72   0.70711
  136   73  -0.70711
  136   84   0.70711
  136   85   0.70711
  136   96  -0.70711
  136   97   0.70711
  136  108  -0.70711
  136  109  -0.70711
  136  120   0.70711
  136  121  -0.70711
  136  132   0.70711
  136  133   0.70711
  136  144  -0.70711
  136  145   0.70711
  136  156  -0.70711
  136  157  -0.70711
  137   66   0.12500
  137   67   0.12500
  137   78  -0.70711
  137   79   0.70711
  137   90  -1.00000
  137  102  -0.70711
  137  103  -0.70711
  137  115  -1.00000
  137  126   0.70711
  137  127  -0.70711
  137  138   1.00000
  137  150   0.70711
  137  151   0.70711
  137  160   1.00000
  138   72   0.38268
  138   73  -0.92388
  138   84   0.92388
  138   85  -0.38268
  138   96   0.92388
  138   97   0.38268
  138  108   0.38268
  138  109   0.92388
  138  120  -0.38268
  138  121   0.92388
  138  132  -0.92388
  138  133   0.38268
  138  144  -0.92388
  138  145  -0.38268
  138  156  -0.38268
  138  157  -0.92388
  139   66   0.12500
  139   67   0.12500
  139   79   1.00000
  139   91   1.00000
  139  103   1.00000
  139  115   1.00000
  139  127   1.00000
  139  139   1.00000
  139  151   1.00000
  139  160   1.00000
  140   73  -1.00000
  140   85  -1.00000
  140   97  -1.00000
  140  109  -1.00000
  140  121  -1.00000
  140  133  -1.00000
  140  145  -1.00000
  140  157  -1.00000
  141   66   0.12500
  141   67   0.12500
  141   78   0.70711
  141   79   0.70711
  141   90   1.00000
  141  102   0.70711
  141  103  -0.70711
  141  115  -1.00000
  141  126  -0.70711
  141  127  -0.70711
  141  138  -1.00000
  141  150  -0.70711
  141  151   0.70711
  141  160   1.00000
  142   72  -0.38268
  142   73  -0.92388
  142   84  -0.92388
  142   85  -0.38268
  142   96  -0.92388
  142   97   0.38268
  142  108  -0.38268
  142  109   0.92388
  142  120   0.38268
  142  121   0.92388
  142  132   0.92388
  142  133   0.38268
  142  144   0.92388
  142  145  -0.38268
  142  156   0.38268
  142  157  -0.92388
  143   66   0.12500
  143   67   0.12500
  143   78   1.00000
  143   91  -1.00000
  143  102  -1.00000
  143  115   1.00000
  143  126   1.00000
  143  139  -1.00000
  143  150  -1.00000
  143  160   1.00000
  144   72  -0.70711
  144   73  -0.70711
  144   84  -0.70711
  144   85   0.70711
  144   96   0.70711
  144   97   0.70711
  144  108   0.70711
  144  109  -0.70711
  144  120  -0.70711
  144  121  -0.70711
  144  132  -0.70711
  144  133   0.70711
  144  144   0.70711
  144  145   0.70711
  144  156   0.70711
  144  157  -0.70711
  145   66   0.12500
  145   67   0.12500
  145   78   0.38268
  145   79  -0.92388
  145   90  -0.70711
  145   91   0.70711
  145  102   0.92388
  145  103  -0.38268
  145  114  -1.00000
  145  126   0.92388
  145  127   0.38268
  145  138  -0.70711
  145  139  -0.70711
  145  150   0.38268
  145  151   0.92388
  145  160  -1.00000
  146   72   0.98079
  146   73   0.19509
  146   84  -0.83147
  146   85  -0.55557
  146   96   0.55557
  146   97   0.83147
  146  108  -0.19509
  146  109  -0.98079
  146  120  -0.19509
  146  121   0.98079
  146  132   0.55557
  146  133  -0.83147
  146  144  -0.83147
  146  145   0.55557
  146  156   0.98079
  146  157  -0.19509
  147   66   0.12500
  147   67   0.12500
  147   78  -0.38268
  147   79  -0.92388
  147   90   0.70711
  147   91   0.70711
  147  102  -0.92388
  147  103  -0.38268
  147  114   1.00000
  147  126  -0.92388
  147  127   0.38268
  147  138   0.70711
  147  139  -0.70711
  147  150  -0.38268
  147  151   0.92388
  147  160  -1.00000
  148   72   0.98079
  148   73  -0.19509
  148   84  -0.83147
  148   85   0.55557
  148   96   0.55557
  148   97  -0.83147
  148  108  -0.19509
  148  109   0.98079
  148  120  -0.19509
  148  121  -0.98079
  148  132   0.55557
  148  133   0.83147
  148  144  -0.83147
  148  145  -0.55557
  148  156   0.98079
  148  157   0.19509
  149   66   0.12500
  149   67   0.12500
  149   78  -0.92388
  149   79  -0.38268
  149   90   0.70711
  149   91  -0.70711
  149  102   0.38268
  149  103   0.92388
  149  114  -1.00000
  149  126   0.38268
  149  127  -0.92388
  149  138   0.70711
  149  139   0.70711
  149  150  -0.92388
  149  151   0.38268
  149  160  -1.00000
  150   72   0.83147
  150   73  -0.55557
  150   84   0.19509
  150   85   0.98079
  150   96  -0.98079
  150   97  -0.19509
  150  108   0.55557
  150  109  -0.83147
  150  120   0.55557
  150  121   0.83147
  150  132  -0.98079
  150  133   0.19509
  150  144   0.19509
  150  145  -0.98079
  150  156   0.83147
  150  157   0.55557
  151   66   0.12500
  151   67   0.12500
  151   78  -0.92388
  151   79   0.38268
  151   90  -0.70711
  151   91  -0.70711
  151  102   0.38268
  151  103  -0.92388
  151  114   1.00000
  151  126   0.38268
  151  127   0.92388
  151  138  -0.70711
  151  139   0.70711
  151  150  -0.92388
  151  151  -0.38268
  151  160  -1.00000
  152   72   0.55557
  152   73  -0.83147
  152   84   0.98079
  152   85   0.19509
  152   96   0.19509
  152   97   0.98079
  152  108  -0.83147
  152  109   0.55557
  152  120  -0.83147
  152  121  -0.55557
  152  132   0.19509
  152  133  -0.98079
  152  144   0.98079
  152  145  -0.19509
  152  156   0.55557
  152  157   0.83147
  153   66   0.12500
  153   67   0.12500
  153   78  -0.38268
  153   79   0.92388
  153   90  -0.70711
  153   91   0.70711
  153  102  -0.92388
  153  103   0.38268
  153  114  -1.00000
  153  126  -0.92388
  153  127  -0.38268
  153  138  -0.70711
  153  139  -0.70711
  153  150  -0.38268
  153  151  -0.92388
  153  160  -1.00000
  154   72   0.19509
  154   73  -0.98079
  154   84   0.55557
  154   85  -0.83147
  154   96   0.83147
  154   97  -0.55557
  154  108   0.98079
  154  109  -0.19509
  154  120   0.98079
  154  121   0.19509
  154  132   0.83147
  154  133   0.55557
  154  144   0.55557
  154  145   0.83147
  154  156   0.19509
  154  157   0.98079
  155   66   0.12500
  155   67   0.12500
  155   78   0.38268
  155   79   0.92388
  155   90   0.70711
  155   91   0.70711
  155  102   0.92388
  155  103   0.38268
  155  114   1.00000
  155  126   0.92388
  155  127  -0.38268
  155  138   0.70711
  155  139  -0.70711
  155  150   0.38268
  155  151  -0.92388
  155  160  -1.00000
  156   72  -0.19509
  156   73  -0.98079
  156   84  -0.55557
  156   85  -0.83147
  156   96  -0.83147
  156   97  -0.55557
  156  108  -0.98079
  156  109  -0.19509
  156  120  -0.98079
  156  121   0.19509
  156  132  -0.83147
  156  133   0.55557
  156  144  -0.55557
  156  145   0.83147
  156  156  -0.19509
  156  157   0.98079
  157   66   0.12500
  157   67   0.12500
  157   78   0.92388
  157   79   0.38268
  157   90   0.70711
  157   91  -0.70711
  157  102  -0.38268
  157  103  -0.92388
  157  114  -1.00000
  157  126  -0.38268
  157  127   0.92388
  157  138   0.70711
  157  139   0.70711
  157  150   0.92388
  157  151  -0.38268
  157  160  -1.00000
  158   72  -0.55557
  158   73  -0.83147
  158   84  -0.98079
  158   85   0.19509
  158   96  -0.19509
  158   97   0.98079
  158  108   0.83147
  158  109   0.55557
  158  120   0.83147
  158  121  -0.55557
  158  132  -0.19509
  158  133  -0.98079
  158  144  -0.98079
  158  145  -0.19509
  158  156  -0.55557
  158  157   0.83147
  159   66   0.12500
  159   67   0.12500
  159   78   0.92388
  159   79  -0.38268
  159   90  -0.70711
  159   91  -0.70711
  159  102  -0.38268
  159  103   0.92388
  159  114   1.00000
  159  126  -0.38268
  159  127  -0.92388
  159  138  -0.70711
  159  139   0.70711
  159  150   0.92388
  159  151   0.38268
  159  160  -1.00000
  160   72  -0.83147
  160   73  -0.55557
  160   84  -0.19509
  160   85   0.98079
  160   96   0.98079
  160   97  -0.19509
  160  108  -0.55557
  160  109  -0.83147
  160  120  -0.55557
  160  121   0.83147
  160  132   0.98079
  160  133   0.19509
  160  144  -0.19509
  160  145  -0.98079
  160  156  -0.83147
  160  157   0.55557

_iso_magneticmode_number    0


_iso_rotationalmode_number    0


_iso_occupancymode_number    0

_iso_strainmode_number    3

loop_
_iso_strainmode_ID
_iso_strainmode_label
_iso_strainmode_value
   1 Pm-3m[0,0,0]GM1+(a)strain(a)  0.00945
   2 Pm-3m[0,0,0]GM3+(a,0)strain(a) -0.00788
   3 Pm-3m[0,0,0]GM5+(a,0,0)strain(a)  0.00000

loop_
_iso_strainmodenorm_ID
_iso_strainmodenorm_value
   1  0.57735
   2  0.81650
   3  1.41421

loop_
_iso_strain_ID
_iso_strain_label
_iso_strain_value
   1 E_1   0.01339
   2 E_2   0.01339
   3 E_3   0.00157
   4 E_4   0.00000
   5 E_5   0.00000
   6 E_6   0.00000

# matrix conversion: strains(parent) = matrix * modeamplitudes
# Rectangular matrix with 6 rows and _iso_strainmode_number columns

loop_
_iso_strainmodematrix_row
_iso_strainmodematrix_col
_iso_strainmodematrix_value
    1    1   1.00000
    1    2  -0.50000
    2    1   1.00000
    2    2  -0.50000
    3    1   1.00000
    3    2   1.00000
    6    3   1.00000

_iso_parentcell_length_a     3.92037
_iso_parentcell_length_b     3.92037
_iso_parentcell_length_c     3.92037
_iso_parentcell_angle_alpha  90.00000
_iso_parentcell_angle_beta   90.00000
_iso_parentcell_angle_gamma  90.00000
_iso_parentcell_volume       60.25335
_iso_parent-to-child.transform_Pp_abc 16a+16b,-a+b,c;-5.00188,-5.00188,0

# end of structure file
# end of cif
